**************************************************
* OpenRAM generated memory.
* Words: 256
* Data bits: 128
* Banks: 1
* Column mux: 1:1
**************************************************
* Copyright 2020 The SkyWater PDK Authors
*
* Licensed under the Apache License, Version 2.0 (the "License");
* you may not use this file except in compliance with the License.
* You may obtain a copy of the License at
*
*     https://www.apache.org/licenses/LICENSE-2.0
*
* Unless required by applicable law or agreed to in writing, software
* distributed under the License is distributed on an "AS IS" BASIS,
* WITHOUT WARRANTIES OR CONDITIONS OF ANY KIND, either express or implied.
* See the License for the specific language governing permissions and
* limitations under the License.
*
* SPDX-License-Identifier: Apache-2.0

* SPICE3 file created from sky130_fd_bd_sram__openram_sram_dff.ext - technology: EFS8A

.subckt sky130_fd_bd_sram__openram_sram_dff D Q CLK VDD GND
X1000 a_511_725# a_n8_115# VDD VDD sky130_fd_pr__pfet_01v8 W=3u L=0.15u m=1
X1001 a_353_115# CLK a_11_624# GND sky130_fd_pr__nfet_01v8 W=1u L=0.15u m=1
X1002 a_353_725# a_203_89# a_11_624# VDD sky130_fd_pr__pfet_01v8 W=3u L=0.15u m=1
X1003 a_11_624# a_203_89# a_161_115# GND sky130_fd_pr__nfet_01v8 W=1u L=0.15u m=1
X1004 a_11_624# CLK a_161_725# VDD sky130_fd_pr__pfet_01v8 W=3u L=0.15u m=1
X1005 GND Q a_703_115# GND sky130_fd_pr__nfet_01v8 W=1u L=0.15u m=1
X1006 VDD Q a_703_725# VDD sky130_fd_pr__pfet_01v8 W=3u L=0.15u m=1
X1007 a_203_89# CLK GND GND sky130_fd_pr__nfet_01v8 W=1u L=0.15u m=1
X1008 a_203_89# CLK VDD VDD sky130_fd_pr__pfet_01v8 W=3u L=0.15u m=1
X1009 a_161_115# D GND GND sky130_fd_pr__nfet_01v8 W=1u L=0.15u m=1
X1010 a_161_725# D VDD VDD sky130_fd_pr__pfet_01v8 W=3u L=0.15u m=1
X1011 GND a_11_624# a_n8_115# GND sky130_fd_pr__nfet_01v8 W=1u L=0.15u m=1
X1012 a_703_115# a_203_89# ON GND sky130_fd_pr__nfet_01v8 W=1u L=0.15u m=1
X1013 VDD a_11_624# a_n8_115# VDD sky130_fd_pr__pfet_01v8 W=3u L=0.15u m=1
X1014 a_703_725# CLK ON VDD sky130_fd_pr__pfet_01v8 W=3u L=0.15u m=1
X1015 Q ON VDD VDD sky130_fd_pr__pfet_01v8 W=3u L=0.15u m=1
X1016 Q ON GND GND sky130_fd_pr__nfet_01v8 W=1u L=0.15u m=1
X1017 ON a_203_89# a_511_725# VDD sky130_fd_pr__pfet_01v8 W=3u L=0.15u m=1
X1018 ON CLK a_511_115# GND sky130_fd_pr__nfet_01v8 W=1u L=0.15u m=1
X1019 GND a_n8_115# a_353_115# GND sky130_fd_pr__nfet_01v8 W=1u L=0.15u m=1
X1020 VDD a_n8_115# a_353_725# VDD sky130_fd_pr__pfet_01v8 W=3u L=0.15u m=1
X1021 a_511_115# a_n8_115# GND GND sky130_fd_pr__nfet_01v8 W=1u L=0.15u m=1
.ends

.SUBCKT row_addr_dff din_0 din_1 din_2 din_3 din_4 din_5 din_6 din_7 dout_0 dout_1 dout_2 dout_3 dout_4 dout_5 dout_6 dout_7 clk vdd gnd
*.PININFO din_0:I din_1:I din_2:I din_3:I din_4:I din_5:I din_6:I din_7:I dout_0:O dout_1:O dout_2:O dout_3:O dout_4:O dout_5:O dout_6:O dout_7:O clk:I vdd:B gnd:B
* INPUT : din_0 
* INPUT : din_1 
* INPUT : din_2 
* INPUT : din_3 
* INPUT : din_4 
* INPUT : din_5 
* INPUT : din_6 
* INPUT : din_7 
* OUTPUT: dout_0 
* OUTPUT: dout_1 
* OUTPUT: dout_2 
* OUTPUT: dout_3 
* OUTPUT: dout_4 
* OUTPUT: dout_5 
* OUTPUT: dout_6 
* OUTPUT: dout_7 
* INPUT : clk 
* POWER : vdd 
* GROUND: gnd 
* rows: 8 cols: 1
Xdff_r0_c0 din_0 dout_0 CLK VDD GND sky130_fd_bd_sram__openram_sram_dff
Xdff_r1_c0 din_1 dout_1 CLK VDD GND sky130_fd_bd_sram__openram_sram_dff
Xdff_r2_c0 din_2 dout_2 CLK VDD GND sky130_fd_bd_sram__openram_sram_dff
Xdff_r3_c0 din_3 dout_3 CLK VDD GND sky130_fd_bd_sram__openram_sram_dff
Xdff_r4_c0 din_4 dout_4 CLK VDD GND sky130_fd_bd_sram__openram_sram_dff
Xdff_r5_c0 din_5 dout_5 CLK VDD GND sky130_fd_bd_sram__openram_sram_dff
Xdff_r6_c0 din_6 dout_6 CLK VDD GND sky130_fd_bd_sram__openram_sram_dff
Xdff_r7_c0 din_7 dout_7 CLK VDD GND sky130_fd_bd_sram__openram_sram_dff
.ENDS row_addr_dff

.SUBCKT data_dff din_0 din_1 din_2 din_3 din_4 din_5 din_6 din_7 din_8 din_9 din_10 din_11 din_12 din_13 din_14 din_15 din_16 din_17 din_18 din_19 din_20 din_21 din_22 din_23 din_24 din_25 din_26 din_27 din_28 din_29 din_30 din_31 din_32 din_33 din_34 din_35 din_36 din_37 din_38 din_39 din_40 din_41 din_42 din_43 din_44 din_45 din_46 din_47 din_48 din_49 din_50 din_51 din_52 din_53 din_54 din_55 din_56 din_57 din_58 din_59 din_60 din_61 din_62 din_63 din_64 din_65 din_66 din_67 din_68 din_69 din_70 din_71 din_72 din_73 din_74 din_75 din_76 din_77 din_78 din_79 din_80 din_81 din_82 din_83 din_84 din_85 din_86 din_87 din_88 din_89 din_90 din_91 din_92 din_93 din_94 din_95 din_96 din_97 din_98 din_99 din_100 din_101 din_102 din_103 din_104 din_105 din_106 din_107 din_108 din_109 din_110 din_111 din_112 din_113 din_114 din_115 din_116 din_117 din_118 din_119 din_120 din_121 din_122 din_123 din_124 din_125 din_126 din_127 dout_0 dout_1 dout_2 dout_3 dout_4 dout_5 dout_6 dout_7 dout_8 dout_9 dout_10 dout_11 dout_12 dout_13 dout_14 dout_15 dout_16 dout_17 dout_18 dout_19 dout_20 dout_21 dout_22 dout_23 dout_24 dout_25 dout_26 dout_27 dout_28 dout_29 dout_30 dout_31 dout_32 dout_33 dout_34 dout_35 dout_36 dout_37 dout_38 dout_39 dout_40 dout_41 dout_42 dout_43 dout_44 dout_45 dout_46 dout_47 dout_48 dout_49 dout_50 dout_51 dout_52 dout_53 dout_54 dout_55 dout_56 dout_57 dout_58 dout_59 dout_60 dout_61 dout_62 dout_63 dout_64 dout_65 dout_66 dout_67 dout_68 dout_69 dout_70 dout_71 dout_72 dout_73 dout_74 dout_75 dout_76 dout_77 dout_78 dout_79 dout_80 dout_81 dout_82 dout_83 dout_84 dout_85 dout_86 dout_87 dout_88 dout_89 dout_90 dout_91 dout_92 dout_93 dout_94 dout_95 dout_96 dout_97 dout_98 dout_99 dout_100 dout_101 dout_102 dout_103 dout_104 dout_105 dout_106 dout_107 dout_108 dout_109 dout_110 dout_111 dout_112 dout_113 dout_114 dout_115 dout_116 dout_117 dout_118 dout_119 dout_120 dout_121 dout_122 dout_123 dout_124 dout_125 dout_126 dout_127 clk vdd gnd
*.PININFO din_0:I din_1:I din_2:I din_3:I din_4:I din_5:I din_6:I din_7:I din_8:I din_9:I din_10:I din_11:I din_12:I din_13:I din_14:I din_15:I din_16:I din_17:I din_18:I din_19:I din_20:I din_21:I din_22:I din_23:I din_24:I din_25:I din_26:I din_27:I din_28:I din_29:I din_30:I din_31:I din_32:I din_33:I din_34:I din_35:I din_36:I din_37:I din_38:I din_39:I din_40:I din_41:I din_42:I din_43:I din_44:I din_45:I din_46:I din_47:I din_48:I din_49:I din_50:I din_51:I din_52:I din_53:I din_54:I din_55:I din_56:I din_57:I din_58:I din_59:I din_60:I din_61:I din_62:I din_63:I din_64:I din_65:I din_66:I din_67:I din_68:I din_69:I din_70:I din_71:I din_72:I din_73:I din_74:I din_75:I din_76:I din_77:I din_78:I din_79:I din_80:I din_81:I din_82:I din_83:I din_84:I din_85:I din_86:I din_87:I din_88:I din_89:I din_90:I din_91:I din_92:I din_93:I din_94:I din_95:I din_96:I din_97:I din_98:I din_99:I din_100:I din_101:I din_102:I din_103:I din_104:I din_105:I din_106:I din_107:I din_108:I din_109:I din_110:I din_111:I din_112:I din_113:I din_114:I din_115:I din_116:I din_117:I din_118:I din_119:I din_120:I din_121:I din_122:I din_123:I din_124:I din_125:I din_126:I din_127:I dout_0:O dout_1:O dout_2:O dout_3:O dout_4:O dout_5:O dout_6:O dout_7:O dout_8:O dout_9:O dout_10:O dout_11:O dout_12:O dout_13:O dout_14:O dout_15:O dout_16:O dout_17:O dout_18:O dout_19:O dout_20:O dout_21:O dout_22:O dout_23:O dout_24:O dout_25:O dout_26:O dout_27:O dout_28:O dout_29:O dout_30:O dout_31:O dout_32:O dout_33:O dout_34:O dout_35:O dout_36:O dout_37:O dout_38:O dout_39:O dout_40:O dout_41:O dout_42:O dout_43:O dout_44:O dout_45:O dout_46:O dout_47:O dout_48:O dout_49:O dout_50:O dout_51:O dout_52:O dout_53:O dout_54:O dout_55:O dout_56:O dout_57:O dout_58:O dout_59:O dout_60:O dout_61:O dout_62:O dout_63:O dout_64:O dout_65:O dout_66:O dout_67:O dout_68:O dout_69:O dout_70:O dout_71:O dout_72:O dout_73:O dout_74:O dout_75:O dout_76:O dout_77:O dout_78:O dout_79:O dout_80:O dout_81:O dout_82:O dout_83:O dout_84:O dout_85:O dout_86:O dout_87:O dout_88:O dout_89:O dout_90:O dout_91:O dout_92:O dout_93:O dout_94:O dout_95:O dout_96:O dout_97:O dout_98:O dout_99:O dout_100:O dout_101:O dout_102:O dout_103:O dout_104:O dout_105:O dout_106:O dout_107:O dout_108:O dout_109:O dout_110:O dout_111:O dout_112:O dout_113:O dout_114:O dout_115:O dout_116:O dout_117:O dout_118:O dout_119:O dout_120:O dout_121:O dout_122:O dout_123:O dout_124:O dout_125:O dout_126:O dout_127:O clk:I vdd:B gnd:B
* INPUT : din_0 
* INPUT : din_1 
* INPUT : din_2 
* INPUT : din_3 
* INPUT : din_4 
* INPUT : din_5 
* INPUT : din_6 
* INPUT : din_7 
* INPUT : din_8 
* INPUT : din_9 
* INPUT : din_10 
* INPUT : din_11 
* INPUT : din_12 
* INPUT : din_13 
* INPUT : din_14 
* INPUT : din_15 
* INPUT : din_16 
* INPUT : din_17 
* INPUT : din_18 
* INPUT : din_19 
* INPUT : din_20 
* INPUT : din_21 
* INPUT : din_22 
* INPUT : din_23 
* INPUT : din_24 
* INPUT : din_25 
* INPUT : din_26 
* INPUT : din_27 
* INPUT : din_28 
* INPUT : din_29 
* INPUT : din_30 
* INPUT : din_31 
* INPUT : din_32 
* INPUT : din_33 
* INPUT : din_34 
* INPUT : din_35 
* INPUT : din_36 
* INPUT : din_37 
* INPUT : din_38 
* INPUT : din_39 
* INPUT : din_40 
* INPUT : din_41 
* INPUT : din_42 
* INPUT : din_43 
* INPUT : din_44 
* INPUT : din_45 
* INPUT : din_46 
* INPUT : din_47 
* INPUT : din_48 
* INPUT : din_49 
* INPUT : din_50 
* INPUT : din_51 
* INPUT : din_52 
* INPUT : din_53 
* INPUT : din_54 
* INPUT : din_55 
* INPUT : din_56 
* INPUT : din_57 
* INPUT : din_58 
* INPUT : din_59 
* INPUT : din_60 
* INPUT : din_61 
* INPUT : din_62 
* INPUT : din_63 
* INPUT : din_64 
* INPUT : din_65 
* INPUT : din_66 
* INPUT : din_67 
* INPUT : din_68 
* INPUT : din_69 
* INPUT : din_70 
* INPUT : din_71 
* INPUT : din_72 
* INPUT : din_73 
* INPUT : din_74 
* INPUT : din_75 
* INPUT : din_76 
* INPUT : din_77 
* INPUT : din_78 
* INPUT : din_79 
* INPUT : din_80 
* INPUT : din_81 
* INPUT : din_82 
* INPUT : din_83 
* INPUT : din_84 
* INPUT : din_85 
* INPUT : din_86 
* INPUT : din_87 
* INPUT : din_88 
* INPUT : din_89 
* INPUT : din_90 
* INPUT : din_91 
* INPUT : din_92 
* INPUT : din_93 
* INPUT : din_94 
* INPUT : din_95 
* INPUT : din_96 
* INPUT : din_97 
* INPUT : din_98 
* INPUT : din_99 
* INPUT : din_100 
* INPUT : din_101 
* INPUT : din_102 
* INPUT : din_103 
* INPUT : din_104 
* INPUT : din_105 
* INPUT : din_106 
* INPUT : din_107 
* INPUT : din_108 
* INPUT : din_109 
* INPUT : din_110 
* INPUT : din_111 
* INPUT : din_112 
* INPUT : din_113 
* INPUT : din_114 
* INPUT : din_115 
* INPUT : din_116 
* INPUT : din_117 
* INPUT : din_118 
* INPUT : din_119 
* INPUT : din_120 
* INPUT : din_121 
* INPUT : din_122 
* INPUT : din_123 
* INPUT : din_124 
* INPUT : din_125 
* INPUT : din_126 
* INPUT : din_127 
* OUTPUT: dout_0 
* OUTPUT: dout_1 
* OUTPUT: dout_2 
* OUTPUT: dout_3 
* OUTPUT: dout_4 
* OUTPUT: dout_5 
* OUTPUT: dout_6 
* OUTPUT: dout_7 
* OUTPUT: dout_8 
* OUTPUT: dout_9 
* OUTPUT: dout_10 
* OUTPUT: dout_11 
* OUTPUT: dout_12 
* OUTPUT: dout_13 
* OUTPUT: dout_14 
* OUTPUT: dout_15 
* OUTPUT: dout_16 
* OUTPUT: dout_17 
* OUTPUT: dout_18 
* OUTPUT: dout_19 
* OUTPUT: dout_20 
* OUTPUT: dout_21 
* OUTPUT: dout_22 
* OUTPUT: dout_23 
* OUTPUT: dout_24 
* OUTPUT: dout_25 
* OUTPUT: dout_26 
* OUTPUT: dout_27 
* OUTPUT: dout_28 
* OUTPUT: dout_29 
* OUTPUT: dout_30 
* OUTPUT: dout_31 
* OUTPUT: dout_32 
* OUTPUT: dout_33 
* OUTPUT: dout_34 
* OUTPUT: dout_35 
* OUTPUT: dout_36 
* OUTPUT: dout_37 
* OUTPUT: dout_38 
* OUTPUT: dout_39 
* OUTPUT: dout_40 
* OUTPUT: dout_41 
* OUTPUT: dout_42 
* OUTPUT: dout_43 
* OUTPUT: dout_44 
* OUTPUT: dout_45 
* OUTPUT: dout_46 
* OUTPUT: dout_47 
* OUTPUT: dout_48 
* OUTPUT: dout_49 
* OUTPUT: dout_50 
* OUTPUT: dout_51 
* OUTPUT: dout_52 
* OUTPUT: dout_53 
* OUTPUT: dout_54 
* OUTPUT: dout_55 
* OUTPUT: dout_56 
* OUTPUT: dout_57 
* OUTPUT: dout_58 
* OUTPUT: dout_59 
* OUTPUT: dout_60 
* OUTPUT: dout_61 
* OUTPUT: dout_62 
* OUTPUT: dout_63 
* OUTPUT: dout_64 
* OUTPUT: dout_65 
* OUTPUT: dout_66 
* OUTPUT: dout_67 
* OUTPUT: dout_68 
* OUTPUT: dout_69 
* OUTPUT: dout_70 
* OUTPUT: dout_71 
* OUTPUT: dout_72 
* OUTPUT: dout_73 
* OUTPUT: dout_74 
* OUTPUT: dout_75 
* OUTPUT: dout_76 
* OUTPUT: dout_77 
* OUTPUT: dout_78 
* OUTPUT: dout_79 
* OUTPUT: dout_80 
* OUTPUT: dout_81 
* OUTPUT: dout_82 
* OUTPUT: dout_83 
* OUTPUT: dout_84 
* OUTPUT: dout_85 
* OUTPUT: dout_86 
* OUTPUT: dout_87 
* OUTPUT: dout_88 
* OUTPUT: dout_89 
* OUTPUT: dout_90 
* OUTPUT: dout_91 
* OUTPUT: dout_92 
* OUTPUT: dout_93 
* OUTPUT: dout_94 
* OUTPUT: dout_95 
* OUTPUT: dout_96 
* OUTPUT: dout_97 
* OUTPUT: dout_98 
* OUTPUT: dout_99 
* OUTPUT: dout_100 
* OUTPUT: dout_101 
* OUTPUT: dout_102 
* OUTPUT: dout_103 
* OUTPUT: dout_104 
* OUTPUT: dout_105 
* OUTPUT: dout_106 
* OUTPUT: dout_107 
* OUTPUT: dout_108 
* OUTPUT: dout_109 
* OUTPUT: dout_110 
* OUTPUT: dout_111 
* OUTPUT: dout_112 
* OUTPUT: dout_113 
* OUTPUT: dout_114 
* OUTPUT: dout_115 
* OUTPUT: dout_116 
* OUTPUT: dout_117 
* OUTPUT: dout_118 
* OUTPUT: dout_119 
* OUTPUT: dout_120 
* OUTPUT: dout_121 
* OUTPUT: dout_122 
* OUTPUT: dout_123 
* OUTPUT: dout_124 
* OUTPUT: dout_125 
* OUTPUT: dout_126 
* OUTPUT: dout_127 
* INPUT : clk 
* POWER : vdd 
* GROUND: gnd 
* rows: 1 cols: 128
Xdff_r0_c0 din_0 dout_0 CLK VDD GND sky130_fd_bd_sram__openram_sram_dff
Xdff_r0_c1 din_1 dout_1 CLK VDD GND sky130_fd_bd_sram__openram_sram_dff
Xdff_r0_c2 din_2 dout_2 CLK VDD GND sky130_fd_bd_sram__openram_sram_dff
Xdff_r0_c3 din_3 dout_3 CLK VDD GND sky130_fd_bd_sram__openram_sram_dff
Xdff_r0_c4 din_4 dout_4 CLK VDD GND sky130_fd_bd_sram__openram_sram_dff
Xdff_r0_c5 din_5 dout_5 CLK VDD GND sky130_fd_bd_sram__openram_sram_dff
Xdff_r0_c6 din_6 dout_6 CLK VDD GND sky130_fd_bd_sram__openram_sram_dff
Xdff_r0_c7 din_7 dout_7 CLK VDD GND sky130_fd_bd_sram__openram_sram_dff
Xdff_r0_c8 din_8 dout_8 CLK VDD GND sky130_fd_bd_sram__openram_sram_dff
Xdff_r0_c9 din_9 dout_9 CLK VDD GND sky130_fd_bd_sram__openram_sram_dff
Xdff_r0_c10 din_10 dout_10 CLK VDD GND sky130_fd_bd_sram__openram_sram_dff
Xdff_r0_c11 din_11 dout_11 CLK VDD GND sky130_fd_bd_sram__openram_sram_dff
Xdff_r0_c12 din_12 dout_12 CLK VDD GND sky130_fd_bd_sram__openram_sram_dff
Xdff_r0_c13 din_13 dout_13 CLK VDD GND sky130_fd_bd_sram__openram_sram_dff
Xdff_r0_c14 din_14 dout_14 CLK VDD GND sky130_fd_bd_sram__openram_sram_dff
Xdff_r0_c15 din_15 dout_15 CLK VDD GND sky130_fd_bd_sram__openram_sram_dff
Xdff_r0_c16 din_16 dout_16 CLK VDD GND sky130_fd_bd_sram__openram_sram_dff
Xdff_r0_c17 din_17 dout_17 CLK VDD GND sky130_fd_bd_sram__openram_sram_dff
Xdff_r0_c18 din_18 dout_18 CLK VDD GND sky130_fd_bd_sram__openram_sram_dff
Xdff_r0_c19 din_19 dout_19 CLK VDD GND sky130_fd_bd_sram__openram_sram_dff
Xdff_r0_c20 din_20 dout_20 CLK VDD GND sky130_fd_bd_sram__openram_sram_dff
Xdff_r0_c21 din_21 dout_21 CLK VDD GND sky130_fd_bd_sram__openram_sram_dff
Xdff_r0_c22 din_22 dout_22 CLK VDD GND sky130_fd_bd_sram__openram_sram_dff
Xdff_r0_c23 din_23 dout_23 CLK VDD GND sky130_fd_bd_sram__openram_sram_dff
Xdff_r0_c24 din_24 dout_24 CLK VDD GND sky130_fd_bd_sram__openram_sram_dff
Xdff_r0_c25 din_25 dout_25 CLK VDD GND sky130_fd_bd_sram__openram_sram_dff
Xdff_r0_c26 din_26 dout_26 CLK VDD GND sky130_fd_bd_sram__openram_sram_dff
Xdff_r0_c27 din_27 dout_27 CLK VDD GND sky130_fd_bd_sram__openram_sram_dff
Xdff_r0_c28 din_28 dout_28 CLK VDD GND sky130_fd_bd_sram__openram_sram_dff
Xdff_r0_c29 din_29 dout_29 CLK VDD GND sky130_fd_bd_sram__openram_sram_dff
Xdff_r0_c30 din_30 dout_30 CLK VDD GND sky130_fd_bd_sram__openram_sram_dff
Xdff_r0_c31 din_31 dout_31 CLK VDD GND sky130_fd_bd_sram__openram_sram_dff
Xdff_r0_c32 din_32 dout_32 CLK VDD GND sky130_fd_bd_sram__openram_sram_dff
Xdff_r0_c33 din_33 dout_33 CLK VDD GND sky130_fd_bd_sram__openram_sram_dff
Xdff_r0_c34 din_34 dout_34 CLK VDD GND sky130_fd_bd_sram__openram_sram_dff
Xdff_r0_c35 din_35 dout_35 CLK VDD GND sky130_fd_bd_sram__openram_sram_dff
Xdff_r0_c36 din_36 dout_36 CLK VDD GND sky130_fd_bd_sram__openram_sram_dff
Xdff_r0_c37 din_37 dout_37 CLK VDD GND sky130_fd_bd_sram__openram_sram_dff
Xdff_r0_c38 din_38 dout_38 CLK VDD GND sky130_fd_bd_sram__openram_sram_dff
Xdff_r0_c39 din_39 dout_39 CLK VDD GND sky130_fd_bd_sram__openram_sram_dff
Xdff_r0_c40 din_40 dout_40 CLK VDD GND sky130_fd_bd_sram__openram_sram_dff
Xdff_r0_c41 din_41 dout_41 CLK VDD GND sky130_fd_bd_sram__openram_sram_dff
Xdff_r0_c42 din_42 dout_42 CLK VDD GND sky130_fd_bd_sram__openram_sram_dff
Xdff_r0_c43 din_43 dout_43 CLK VDD GND sky130_fd_bd_sram__openram_sram_dff
Xdff_r0_c44 din_44 dout_44 CLK VDD GND sky130_fd_bd_sram__openram_sram_dff
Xdff_r0_c45 din_45 dout_45 CLK VDD GND sky130_fd_bd_sram__openram_sram_dff
Xdff_r0_c46 din_46 dout_46 CLK VDD GND sky130_fd_bd_sram__openram_sram_dff
Xdff_r0_c47 din_47 dout_47 CLK VDD GND sky130_fd_bd_sram__openram_sram_dff
Xdff_r0_c48 din_48 dout_48 CLK VDD GND sky130_fd_bd_sram__openram_sram_dff
Xdff_r0_c49 din_49 dout_49 CLK VDD GND sky130_fd_bd_sram__openram_sram_dff
Xdff_r0_c50 din_50 dout_50 CLK VDD GND sky130_fd_bd_sram__openram_sram_dff
Xdff_r0_c51 din_51 dout_51 CLK VDD GND sky130_fd_bd_sram__openram_sram_dff
Xdff_r0_c52 din_52 dout_52 CLK VDD GND sky130_fd_bd_sram__openram_sram_dff
Xdff_r0_c53 din_53 dout_53 CLK VDD GND sky130_fd_bd_sram__openram_sram_dff
Xdff_r0_c54 din_54 dout_54 CLK VDD GND sky130_fd_bd_sram__openram_sram_dff
Xdff_r0_c55 din_55 dout_55 CLK VDD GND sky130_fd_bd_sram__openram_sram_dff
Xdff_r0_c56 din_56 dout_56 CLK VDD GND sky130_fd_bd_sram__openram_sram_dff
Xdff_r0_c57 din_57 dout_57 CLK VDD GND sky130_fd_bd_sram__openram_sram_dff
Xdff_r0_c58 din_58 dout_58 CLK VDD GND sky130_fd_bd_sram__openram_sram_dff
Xdff_r0_c59 din_59 dout_59 CLK VDD GND sky130_fd_bd_sram__openram_sram_dff
Xdff_r0_c60 din_60 dout_60 CLK VDD GND sky130_fd_bd_sram__openram_sram_dff
Xdff_r0_c61 din_61 dout_61 CLK VDD GND sky130_fd_bd_sram__openram_sram_dff
Xdff_r0_c62 din_62 dout_62 CLK VDD GND sky130_fd_bd_sram__openram_sram_dff
Xdff_r0_c63 din_63 dout_63 CLK VDD GND sky130_fd_bd_sram__openram_sram_dff
Xdff_r0_c64 din_64 dout_64 CLK VDD GND sky130_fd_bd_sram__openram_sram_dff
Xdff_r0_c65 din_65 dout_65 CLK VDD GND sky130_fd_bd_sram__openram_sram_dff
Xdff_r0_c66 din_66 dout_66 CLK VDD GND sky130_fd_bd_sram__openram_sram_dff
Xdff_r0_c67 din_67 dout_67 CLK VDD GND sky130_fd_bd_sram__openram_sram_dff
Xdff_r0_c68 din_68 dout_68 CLK VDD GND sky130_fd_bd_sram__openram_sram_dff
Xdff_r0_c69 din_69 dout_69 CLK VDD GND sky130_fd_bd_sram__openram_sram_dff
Xdff_r0_c70 din_70 dout_70 CLK VDD GND sky130_fd_bd_sram__openram_sram_dff
Xdff_r0_c71 din_71 dout_71 CLK VDD GND sky130_fd_bd_sram__openram_sram_dff
Xdff_r0_c72 din_72 dout_72 CLK VDD GND sky130_fd_bd_sram__openram_sram_dff
Xdff_r0_c73 din_73 dout_73 CLK VDD GND sky130_fd_bd_sram__openram_sram_dff
Xdff_r0_c74 din_74 dout_74 CLK VDD GND sky130_fd_bd_sram__openram_sram_dff
Xdff_r0_c75 din_75 dout_75 CLK VDD GND sky130_fd_bd_sram__openram_sram_dff
Xdff_r0_c76 din_76 dout_76 CLK VDD GND sky130_fd_bd_sram__openram_sram_dff
Xdff_r0_c77 din_77 dout_77 CLK VDD GND sky130_fd_bd_sram__openram_sram_dff
Xdff_r0_c78 din_78 dout_78 CLK VDD GND sky130_fd_bd_sram__openram_sram_dff
Xdff_r0_c79 din_79 dout_79 CLK VDD GND sky130_fd_bd_sram__openram_sram_dff
Xdff_r0_c80 din_80 dout_80 CLK VDD GND sky130_fd_bd_sram__openram_sram_dff
Xdff_r0_c81 din_81 dout_81 CLK VDD GND sky130_fd_bd_sram__openram_sram_dff
Xdff_r0_c82 din_82 dout_82 CLK VDD GND sky130_fd_bd_sram__openram_sram_dff
Xdff_r0_c83 din_83 dout_83 CLK VDD GND sky130_fd_bd_sram__openram_sram_dff
Xdff_r0_c84 din_84 dout_84 CLK VDD GND sky130_fd_bd_sram__openram_sram_dff
Xdff_r0_c85 din_85 dout_85 CLK VDD GND sky130_fd_bd_sram__openram_sram_dff
Xdff_r0_c86 din_86 dout_86 CLK VDD GND sky130_fd_bd_sram__openram_sram_dff
Xdff_r0_c87 din_87 dout_87 CLK VDD GND sky130_fd_bd_sram__openram_sram_dff
Xdff_r0_c88 din_88 dout_88 CLK VDD GND sky130_fd_bd_sram__openram_sram_dff
Xdff_r0_c89 din_89 dout_89 CLK VDD GND sky130_fd_bd_sram__openram_sram_dff
Xdff_r0_c90 din_90 dout_90 CLK VDD GND sky130_fd_bd_sram__openram_sram_dff
Xdff_r0_c91 din_91 dout_91 CLK VDD GND sky130_fd_bd_sram__openram_sram_dff
Xdff_r0_c92 din_92 dout_92 CLK VDD GND sky130_fd_bd_sram__openram_sram_dff
Xdff_r0_c93 din_93 dout_93 CLK VDD GND sky130_fd_bd_sram__openram_sram_dff
Xdff_r0_c94 din_94 dout_94 CLK VDD GND sky130_fd_bd_sram__openram_sram_dff
Xdff_r0_c95 din_95 dout_95 CLK VDD GND sky130_fd_bd_sram__openram_sram_dff
Xdff_r0_c96 din_96 dout_96 CLK VDD GND sky130_fd_bd_sram__openram_sram_dff
Xdff_r0_c97 din_97 dout_97 CLK VDD GND sky130_fd_bd_sram__openram_sram_dff
Xdff_r0_c98 din_98 dout_98 CLK VDD GND sky130_fd_bd_sram__openram_sram_dff
Xdff_r0_c99 din_99 dout_99 CLK VDD GND sky130_fd_bd_sram__openram_sram_dff
Xdff_r0_c100 din_100 dout_100 CLK VDD GND sky130_fd_bd_sram__openram_sram_dff
Xdff_r0_c101 din_101 dout_101 CLK VDD GND sky130_fd_bd_sram__openram_sram_dff
Xdff_r0_c102 din_102 dout_102 CLK VDD GND sky130_fd_bd_sram__openram_sram_dff
Xdff_r0_c103 din_103 dout_103 CLK VDD GND sky130_fd_bd_sram__openram_sram_dff
Xdff_r0_c104 din_104 dout_104 CLK VDD GND sky130_fd_bd_sram__openram_sram_dff
Xdff_r0_c105 din_105 dout_105 CLK VDD GND sky130_fd_bd_sram__openram_sram_dff
Xdff_r0_c106 din_106 dout_106 CLK VDD GND sky130_fd_bd_sram__openram_sram_dff
Xdff_r0_c107 din_107 dout_107 CLK VDD GND sky130_fd_bd_sram__openram_sram_dff
Xdff_r0_c108 din_108 dout_108 CLK VDD GND sky130_fd_bd_sram__openram_sram_dff
Xdff_r0_c109 din_109 dout_109 CLK VDD GND sky130_fd_bd_sram__openram_sram_dff
Xdff_r0_c110 din_110 dout_110 CLK VDD GND sky130_fd_bd_sram__openram_sram_dff
Xdff_r0_c111 din_111 dout_111 CLK VDD GND sky130_fd_bd_sram__openram_sram_dff
Xdff_r0_c112 din_112 dout_112 CLK VDD GND sky130_fd_bd_sram__openram_sram_dff
Xdff_r0_c113 din_113 dout_113 CLK VDD GND sky130_fd_bd_sram__openram_sram_dff
Xdff_r0_c114 din_114 dout_114 CLK VDD GND sky130_fd_bd_sram__openram_sram_dff
Xdff_r0_c115 din_115 dout_115 CLK VDD GND sky130_fd_bd_sram__openram_sram_dff
Xdff_r0_c116 din_116 dout_116 CLK VDD GND sky130_fd_bd_sram__openram_sram_dff
Xdff_r0_c117 din_117 dout_117 CLK VDD GND sky130_fd_bd_sram__openram_sram_dff
Xdff_r0_c118 din_118 dout_118 CLK VDD GND sky130_fd_bd_sram__openram_sram_dff
Xdff_r0_c119 din_119 dout_119 CLK VDD GND sky130_fd_bd_sram__openram_sram_dff
Xdff_r0_c120 din_120 dout_120 CLK VDD GND sky130_fd_bd_sram__openram_sram_dff
Xdff_r0_c121 din_121 dout_121 CLK VDD GND sky130_fd_bd_sram__openram_sram_dff
Xdff_r0_c122 din_122 dout_122 CLK VDD GND sky130_fd_bd_sram__openram_sram_dff
Xdff_r0_c123 din_123 dout_123 CLK VDD GND sky130_fd_bd_sram__openram_sram_dff
Xdff_r0_c124 din_124 dout_124 CLK VDD GND sky130_fd_bd_sram__openram_sram_dff
Xdff_r0_c125 din_125 dout_125 CLK VDD GND sky130_fd_bd_sram__openram_sram_dff
Xdff_r0_c126 din_126 dout_126 CLK VDD GND sky130_fd_bd_sram__openram_sram_dff
Xdff_r0_c127 din_127 dout_127 CLK VDD GND sky130_fd_bd_sram__openram_sram_dff
.ENDS data_dff

.SUBCKT wmask_dff din_0 din_1 din_2 din_3 din_4 din_5 din_6 din_7 din_8 din_9 din_10 din_11 din_12 din_13 din_14 din_15 dout_0 dout_1 dout_2 dout_3 dout_4 dout_5 dout_6 dout_7 dout_8 dout_9 dout_10 dout_11 dout_12 dout_13 dout_14 dout_15 clk vdd gnd
*.PININFO din_0:I din_1:I din_2:I din_3:I din_4:I din_5:I din_6:I din_7:I din_8:I din_9:I din_10:I din_11:I din_12:I din_13:I din_14:I din_15:I dout_0:O dout_1:O dout_2:O dout_3:O dout_4:O dout_5:O dout_6:O dout_7:O dout_8:O dout_9:O dout_10:O dout_11:O dout_12:O dout_13:O dout_14:O dout_15:O clk:I vdd:B gnd:B
* INPUT : din_0 
* INPUT : din_1 
* INPUT : din_2 
* INPUT : din_3 
* INPUT : din_4 
* INPUT : din_5 
* INPUT : din_6 
* INPUT : din_7 
* INPUT : din_8 
* INPUT : din_9 
* INPUT : din_10 
* INPUT : din_11 
* INPUT : din_12 
* INPUT : din_13 
* INPUT : din_14 
* INPUT : din_15 
* OUTPUT: dout_0 
* OUTPUT: dout_1 
* OUTPUT: dout_2 
* OUTPUT: dout_3 
* OUTPUT: dout_4 
* OUTPUT: dout_5 
* OUTPUT: dout_6 
* OUTPUT: dout_7 
* OUTPUT: dout_8 
* OUTPUT: dout_9 
* OUTPUT: dout_10 
* OUTPUT: dout_11 
* OUTPUT: dout_12 
* OUTPUT: dout_13 
* OUTPUT: dout_14 
* OUTPUT: dout_15 
* INPUT : clk 
* POWER : vdd 
* GROUND: gnd 
* rows: 1 cols: 16
Xdff_r0_c0 din_0 dout_0 CLK VDD GND sky130_fd_bd_sram__openram_sram_dff
Xdff_r0_c1 din_1 dout_1 CLK VDD GND sky130_fd_bd_sram__openram_sram_dff
Xdff_r0_c2 din_2 dout_2 CLK VDD GND sky130_fd_bd_sram__openram_sram_dff
Xdff_r0_c3 din_3 dout_3 CLK VDD GND sky130_fd_bd_sram__openram_sram_dff
Xdff_r0_c4 din_4 dout_4 CLK VDD GND sky130_fd_bd_sram__openram_sram_dff
Xdff_r0_c5 din_5 dout_5 CLK VDD GND sky130_fd_bd_sram__openram_sram_dff
Xdff_r0_c6 din_6 dout_6 CLK VDD GND sky130_fd_bd_sram__openram_sram_dff
Xdff_r0_c7 din_7 dout_7 CLK VDD GND sky130_fd_bd_sram__openram_sram_dff
Xdff_r0_c8 din_8 dout_8 CLK VDD GND sky130_fd_bd_sram__openram_sram_dff
Xdff_r0_c9 din_9 dout_9 CLK VDD GND sky130_fd_bd_sram__openram_sram_dff
Xdff_r0_c10 din_10 dout_10 CLK VDD GND sky130_fd_bd_sram__openram_sram_dff
Xdff_r0_c11 din_11 dout_11 CLK VDD GND sky130_fd_bd_sram__openram_sram_dff
Xdff_r0_c12 din_12 dout_12 CLK VDD GND sky130_fd_bd_sram__openram_sram_dff
Xdff_r0_c13 din_13 dout_13 CLK VDD GND sky130_fd_bd_sram__openram_sram_dff
Xdff_r0_c14 din_14 dout_14 CLK VDD GND sky130_fd_bd_sram__openram_sram_dff
Xdff_r0_c15 din_15 dout_15 CLK VDD GND sky130_fd_bd_sram__openram_sram_dff
.ENDS wmask_dff
* Copyright 2020 The SkyWater PDK Authors
*
* Licensed under the Apache License, Version 2.0 (the "License");
* you may not use this file except in compliance with the License.
* You may obtain a copy of the License at
*
*     https://www.apache.org/licenses/LICENSE-2.0
*
* Unless required by applicable law or agreed to in writing, software
* distributed under the License is distributed on an "AS IS" BASIS,
* WITHOUT WARRANTIES OR CONDITIONS OF ANY KIND, either express or implied.
* See the License for the specific language governing permissions and
* limitations under the License.
*
* SPDX-License-Identifier: Apache-2.0

* NGSPICE file created from sky130_fd_bd_sram__openram_dp_nand2_dec.ext - technology: EFS8A


* Top level circuit sky130_fd_bd_sram__openram_dp_nand2_dec
.subckt sky130_fd_bd_sram__openram_dp_nand2_dec A B Z VDD GND

M1001 Z B VDD VDD sky130_fd_pr__pfet_01v8 W=1.12u L=0.15u m=1
M1002 VDD A Z VDD sky130_fd_pr__pfet_01v8 W=1.12u L=0.15u m=1
M1000 Z A a_n722_276# GND sky130_fd_pr__nfet_01v8 W=0.74u L=0.15u m=1
M1003 a_n722_276# B GND GND sky130_fd_pr__nfet_01v8 W=0.74u L=0.15u m=1
.ends


* spice ptx X{0} {1} sky130_fd_pr__nfet_01v8 m=1 w=0.36 l=0.15 pd=1.02 ps=1.02 as=0.14u ad=0.14u

* spice ptx X{0} {1} sky130_fd_pr__pfet_01v8 m=1 w=1.12 l=0.15 pd=2.54 ps=2.54 as=0.42u ad=0.42u

.SUBCKT pinv_dec A Z vdd gnd
*.PININFO A:I Z:O vdd:B gnd:B
* INPUT : A 
* OUTPUT: Z 
* POWER : vdd 
* GROUND: gnd 
Xpinv_pmos Z A vdd vdd sky130_fd_pr__pfet_01v8 m=1 w=1.12u l=0.15u
Xpinv_nmos Z A gnd gnd sky130_fd_pr__nfet_01v8 m=1 w=0.36u l=0.15u
.ENDS pinv_dec

.SUBCKT and2_dec A B Z vdd gnd
*.PININFO A:I B:I Z:O vdd:B gnd:B
* INPUT : A 
* INPUT : B 
* OUTPUT: Z 
* POWER : vdd 
* GROUND: gnd 
* size: 1
Xpand2_dec_nand A B zb_int vdd gnd sky130_fd_bd_sram__openram_dp_nand2_dec
Xpand2_dec_inv zb_int Z vdd gnd pinv_dec
.ENDS and2_dec
* Copyright 2020 The SkyWater PDK Authors
*
* Licensed under the Apache License, Version 2.0 (the "License");
* you may not use this file except in compliance with the License.
* You may obtain a copy of the License at
*
*     https://www.apache.org/licenses/LICENSE-2.0
*
* Unless required by applicable law or agreed to in writing, software
* distributed under the License is distributed on an "AS IS" BASIS,
* WITHOUT WARRANTIES OR CONDITIONS OF ANY KIND, either express or implied.
* See the License for the specific language governing permissions and
* limitations under the License.
*
* SPDX-License-Identifier: Apache-2.0

* NGSPICE file created from sky130_fd_bd_sram__openram_dp_nand3_dec.ext - technology: EFS8A


* Top level circuit sky130_fd_bd_sram__openram_dp_nand3_dec
.subckt sky130_fd_bd_sram__openram_dp_nand3_dec A B C Z VDD GND

M1001 Z A a_n346_328# GND sky130_fd_pr__nfet_01v8 W=0.74u L=0.15u m=1
M1002 a_n346_256# C GND GND sky130_fd_pr__nfet_01v8 W=0.74u L=0.15u m=1
M1003 a_n346_328# B a_n346_256# GND sky130_fd_pr__nfet_01v8 W=0.74u L=0.15u m=1
M1000 Z B VDD VDD sky130_fd_pr__pfet_01v8 W=1.12u L=0.15u m=1
M1004 Z A VDD VDD sky130_fd_pr__pfet_01v8 W=1.12u L=0.15u m=1
M1005 Z C VDD VDD sky130_fd_pr__pfet_01v8 W=1.12u L=0.15u m=1
.ends


.SUBCKT and3_dec A B C Z vdd gnd
*.PININFO A:I B:I C:I Z:O vdd:B gnd:B
* INPUT : A 
* INPUT : B 
* INPUT : C 
* OUTPUT: Z 
* POWER : vdd 
* GROUND: gnd 
* size: 1
Xpand3_dec_nand A B C zb_int vdd gnd sky130_fd_bd_sram__openram_dp_nand3_dec
Xpand3_dec_inv zb_int Z vdd gnd pinv_dec
.ENDS and3_dec

.SUBCKT hierarchical_predecode2x4 in_0 in_1 out_0 out_1 out_2 out_3 vdd gnd
*.PININFO in_0:I in_1:I out_0:O out_1:O out_2:O out_3:O vdd:B gnd:B
* INPUT : in_0 
* INPUT : in_1 
* OUTPUT: out_0 
* OUTPUT: out_1 
* OUTPUT: out_2 
* OUTPUT: out_3 
* POWER : vdd 
* GROUND: gnd 
Xpre_inv_0 in_0 inbar_0 vdd gnd pinv_dec
Xpre_inv_1 in_1 inbar_1 vdd gnd pinv_dec
XXpre2x4_and_0 inbar_0 inbar_1 out_0 vdd gnd and2_dec
XXpre2x4_and_1 in_0 inbar_1 out_1 vdd gnd and2_dec
XXpre2x4_and_2 inbar_0 in_1 out_2 vdd gnd and2_dec
XXpre2x4_and_3 in_0 in_1 out_3 vdd gnd and2_dec
.ENDS hierarchical_predecode2x4

.SUBCKT hierarchical_predecode3x8 in_0 in_1 in_2 out_0 out_1 out_2 out_3 out_4 out_5 out_6 out_7 vdd gnd
*.PININFO in_0:I in_1:I in_2:I out_0:O out_1:O out_2:O out_3:O out_4:O out_5:O out_6:O out_7:O vdd:B gnd:B
* INPUT : in_0 
* INPUT : in_1 
* INPUT : in_2 
* OUTPUT: out_0 
* OUTPUT: out_1 
* OUTPUT: out_2 
* OUTPUT: out_3 
* OUTPUT: out_4 
* OUTPUT: out_5 
* OUTPUT: out_6 
* OUTPUT: out_7 
* POWER : vdd 
* GROUND: gnd 
Xpre_inv_0 in_0 inbar_0 vdd gnd pinv_dec
Xpre_inv_1 in_1 inbar_1 vdd gnd pinv_dec
Xpre_inv_2 in_2 inbar_2 vdd gnd pinv_dec
XXpre3x8_and_0 inbar_0 inbar_1 inbar_2 out_0 vdd gnd and3_dec
XXpre3x8_and_1 in_0 inbar_1 inbar_2 out_1 vdd gnd and3_dec
XXpre3x8_and_2 inbar_0 in_1 inbar_2 out_2 vdd gnd and3_dec
XXpre3x8_and_3 in_0 in_1 inbar_2 out_3 vdd gnd and3_dec