**************************************************
* OpenRAM generated memory.
* Words: 256
* Data bits: 64
* Banks: 1
* Column mux: 2:1
**************************************************
* Copyright 2020 The SkyWater PDK Authors
*
* Licensed under the Apache License, Version 2.0 (the "License");
* you may not use this file except in compliance with the License.
* You may obtain a copy of the License at
*
*     https://www.apache.org/licenses/LICENSE-2.0
*
* Unless required by applicable law or agreed to in writing, software
* distributed under the License is distributed on an "AS IS" BASIS,
* WITHOUT WARRANTIES OR CONDITIONS OF ANY KIND, either express or implied.
* See the License for the specific language governing permissions and
* limitations under the License.
*
* SPDX-License-Identifier: Apache-2.0

* SPICE3 file created from sky130_fd_bd_sram__openram_sram_dff.ext - technology: EFS8A

.subckt sky130_fd_bd_sram__openram_sram_dff D Q CLK VDD GND
X1000 a_511_725# a_n8_115# VDD VDD sky130_fd_pr__pfet_01v8 W=3u L=0.15u m=1
X1001 a_353_115# CLK a_11_624# GND sky130_fd_pr__nfet_01v8 W=1u L=0.15u m=1
X1002 a_353_725# a_203_89# a_11_624# VDD sky130_fd_pr__pfet_01v8 W=3u L=0.15u m=1
X1003 a_11_624# a_203_89# a_161_115# GND sky130_fd_pr__nfet_01v8 W=1u L=0.15u m=1
X1004 a_11_624# CLK a_161_725# VDD sky130_fd_pr__pfet_01v8 W=3u L=0.15u m=1
X1005 GND Q a_703_115# GND sky130_fd_pr__nfet_01v8 W=1u L=0.15u m=1
X1006 VDD Q a_703_725# VDD sky130_fd_pr__pfet_01v8 W=3u L=0.15u m=1
X1007 a_203_89# CLK GND GND sky130_fd_pr__nfet_01v8 W=1u L=0.15u m=1
X1008 a_203_89# CLK VDD VDD sky130_fd_pr__pfet_01v8 W=3u L=0.15u m=1
X1009 a_161_115# D GND GND sky130_fd_pr__nfet_01v8 W=1u L=0.15u m=1
X1010 a_161_725# D VDD VDD sky130_fd_pr__pfet_01v8 W=3u L=0.15u m=1
X1011 GND a_11_624# a_n8_115# GND sky130_fd_pr__nfet_01v8 W=1u L=0.15u m=1
X1012 a_703_115# a_203_89# ON GND sky130_fd_pr__nfet_01v8 W=1u L=0.15u m=1
X1013 VDD a_11_624# a_n8_115# VDD sky130_fd_pr__pfet_01v8 W=3u L=0.15u m=1
X1014 a_703_725# CLK ON VDD sky130_fd_pr__pfet_01v8 W=3u L=0.15u m=1
X1015 Q ON VDD VDD sky130_fd_pr__pfet_01v8 W=3u L=0.15u m=1
X1016 Q ON GND GND sky130_fd_pr__nfet_01v8 W=1u L=0.15u m=1
X1017 ON a_203_89# a_511_725# VDD sky130_fd_pr__pfet_01v8 W=3u L=0.15u m=1
X1018 ON CLK a_511_115# GND sky130_fd_pr__nfet_01v8 W=1u L=0.15u m=1
X1019 GND a_n8_115# a_353_115# GND sky130_fd_pr__nfet_01v8 W=1u L=0.15u m=1
X1020 VDD a_n8_115# a_353_725# VDD sky130_fd_pr__pfet_01v8 W=3u L=0.15u m=1
X1021 a_511_115# a_n8_115# GND GND sky130_fd_pr__nfet_01v8 W=1u L=0.15u m=1
.ends

.SUBCKT row_addr_dff din_0 din_1 din_2 din_3 din_4 din_5 din_6 dout_0 dout_1 dout_2 dout_3 dout_4 dout_5 dout_6 clk vdd gnd
*.PININFO din_0:I din_1:I din_2:I din_3:I din_4:I din_5:I din_6:I dout_0:O dout_1:O dout_2:O dout_3:O dout_4:O dout_5:O dout_6:O clk:I vdd:B gnd:B
* INPUT : din_0 
* INPUT : din_1 
* INPUT : din_2 
* INPUT : din_3 
* INPUT : din_4 
* INPUT : din_5 
* INPUT : din_6 
* OUTPUT: dout_0 
* OUTPUT: dout_1 
* OUTPUT: dout_2 
* OUTPUT: dout_3 
* OUTPUT: dout_4 
* OUTPUT: dout_5 
* OUTPUT: dout_6 
* INPUT : clk 
* POWER : vdd 
* GROUND: gnd 
* rows: 7 cols: 1
Xdff_r0_c0 din_0 dout_0 CLK VDD GND sky130_fd_bd_sram__openram_sram_dff
Xdff_r1_c0 din_1 dout_1 CLK VDD GND sky130_fd_bd_sram__openram_sram_dff
Xdff_r2_c0 din_2 dout_2 CLK VDD GND sky130_fd_bd_sram__openram_sram_dff
Xdff_r3_c0 din_3 dout_3 CLK VDD GND sky130_fd_bd_sram__openram_sram_dff
Xdff_r4_c0 din_4 dout_4 CLK VDD GND sky130_fd_bd_sram__openram_sram_dff
Xdff_r5_c0 din_5 dout_5 CLK VDD GND sky130_fd_bd_sram__openram_sram_dff
Xdff_r6_c0 din_6 dout_6 CLK VDD GND sky130_fd_bd_sram__openram_sram_dff
.ENDS row_addr_dff

.SUBCKT col_addr_dff din_0 dout_0 clk vdd gnd
*.PININFO din_0:I dout_0:O clk:I vdd:B gnd:B
* INPUT : din_0 
* OUTPUT: dout_0 
* INPUT : clk 
* POWER : vdd 
* GROUND: gnd 
* rows: 1 cols: 1
Xdff_r0_c0 din_0 dout_0 CLK VDD GND sky130_fd_bd_sram__openram_sram_dff
.ENDS col_addr_dff

.SUBCKT data_dff din_0 din_1 din_2 din_3 din_4 din_5 din_6 din_7 din_8 din_9 din_10 din_11 din_12 din_13 din_14 din_15 din_16 din_17 din_18 din_19 din_20 din_21 din_22 din_23 din_24 din_25 din_26 din_27 din_28 din_29 din_30 din_31 din_32 din_33 din_34 din_35 din_36 din_37 din_38 din_39 din_40 din_41 din_42 din_43 din_44 din_45 din_46 din_47 din_48 din_49 din_50 din_51 din_52 din_53 din_54 din_55 din_56 din_57 din_58 din_59 din_60 din_61 din_62 din_63 dout_0 dout_1 dout_2 dout_3 dout_4 dout_5 dout_6 dout_7 dout_8 dout_9 dout_10 dout_11 dout_12 dout_13 dout_14 dout_15 dout_16 dout_17 dout_18 dout_19 dout_20 dout_21 dout_22 dout_23 dout_24 dout_25 dout_26 dout_27 dout_28 dout_29 dout_30 dout_31 dout_32 dout_33 dout_34 dout_35 dout_36 dout_37 dout_38 dout_39 dout_40 dout_41 dout_42 dout_43 dout_44 dout_45 dout_46 dout_47 dout_48 dout_49 dout_50 dout_51 dout_52 dout_53 dout_54 dout_55 dout_56 dout_57 dout_58 dout_59 dout_60 dout_61 dout_62 dout_63 clk vdd gnd
*.PININFO din_0:I din_1:I din_2:I din_3:I din_4:I din_5:I din_6:I din_7:I din_8:I din_9:I din_10:I din_11:I din_12:I din_13:I din_14:I din_15:I din_16:I din_17:I din_18:I din_19:I din_20:I din_21:I din_22:I din_23:I din_24:I din_25:I din_26:I din_27:I din_28:I din_29:I din_30:I din_31:I din_32:I din_33:I din_34:I din_35:I din_36:I din_37:I din_38:I din_39:I din_40:I din_41:I din_42:I din_43:I din_44:I din_45:I din_46:I din_47:I din_48:I din_49:I din_50:I din_51:I din_52:I din_53:I din_54:I din_55:I din_56:I din_57:I din_58:I din_59:I din_60:I din_61:I din_62:I din_63:I dout_0:O dout_1:O dout_2:O dout_3:O dout_4:O dout_5:O dout_6:O dout_7:O dout_8:O dout_9:O dout_10:O dout_11:O dout_12:O dout_13:O dout_14:O dout_15:O dout_16:O dout_17:O dout_18:O dout_19:O dout_20:O dout_21:O dout_22:O dout_23:O dout_24:O dout_25:O dout_26:O dout_27:O dout_28:O dout_29:O dout_30:O dout_31:O dout_32:O dout_33:O dout_34:O dout_35:O dout_36:O dout_37:O dout_38:O dout_39:O dout_40:O dout_41:O dout_42:O dout_43:O dout_44:O dout_45:O dout_46:O dout_47:O dout_48:O dout_49:O dout_50:O dout_51:O dout_52:O dout_53:O dout_54:O dout_55:O dout_56:O dout_57:O dout_58:O dout_59:O dout_60:O dout_61:O dout_62:O dout_63:O clk:I vdd:B gnd:B
* INPUT : din_0 
* INPUT : din_1 
* INPUT : din_2 
* INPUT : din_3 
* INPUT : din_4 
* INPUT : din_5 
* INPUT : din_6 
* INPUT : din_7 
* INPUT : din_8 
* INPUT : din_9 
* INPUT : din_10 
* INPUT : din_11 
* INPUT : din_12 
* INPUT : din_13 
* INPUT : din_14 
* INPUT : din_15 
* INPUT : din_16 
* INPUT : din_17 
* INPUT : din_18 
* INPUT : din_19 
* INPUT : din_20 
* INPUT : din_21 
* INPUT : din_22 
* INPUT : din_23 
* INPUT : din_24 
* INPUT : din_25 
* INPUT : din_26 
* INPUT : din_27 
* INPUT : din_28 
* INPUT : din_29 
* INPUT : din_30 
* INPUT : din_31 
* INPUT : din_32 
* INPUT : din_33 
* INPUT : din_34 
* INPUT : din_35 
* INPUT : din_36 
* INPUT : din_37 
* INPUT : din_38 
* INPUT : din_39 
* INPUT : din_40 
* INPUT : din_41 
* INPUT : din_42 
* INPUT : din_43 
* INPUT : din_44 
* INPUT : din_45 
* INPUT : din_46 
* INPUT : din_47 
* INPUT : din_48 
* INPUT : din_49 
* INPUT : din_50 
* INPUT : din_51 
* INPUT : din_52 
* INPUT : din_53 
* INPUT : din_54 
* INPUT : din_55 
* INPUT : din_56 
* INPUT : din_57 
* INPUT : din_58 
* INPUT : din_59 
* INPUT : din_60 
* INPUT : din_61 
* INPUT : din_62 
* INPUT : din_63 
* OUTPUT: dout_0 
* OUTPUT: dout_1 
* OUTPUT: dout_2 
* OUTPUT: dout_3 
* OUTPUT: dout_4 
* OUTPUT: dout_5 
* OUTPUT: dout_6 
* OUTPUT: dout_7 
* OUTPUT: dout_8 
* OUTPUT: dout_9 
* OUTPUT: dout_10 
* OUTPUT: dout_11 
* OUTPUT: dout_12 
* OUTPUT: dout_13 
* OUTPUT: dout_14 
* OUTPUT: dout_15 
* OUTPUT: dout_16 
* OUTPUT: dout_17 
* OUTPUT: dout_18 
* OUTPUT: dout_19 
* OUTPUT: dout_20 
* OUTPUT: dout_21 
* OUTPUT: dout_22 
* OUTPUT: dout_23 
* OUTPUT: dout_24 
* OUTPUT: dout_25 
* OUTPUT: dout_26 
* OUTPUT: dout_27 
* OUTPUT: dout_28 
* OUTPUT: dout_29 
* OUTPUT: dout_30 
* OUTPUT: dout_31 
* OUTPUT: dout_32 
* OUTPUT: dout_33 
* OUTPUT: dout_34 
* OUTPUT: dout_35 
* OUTPUT: dout_36 
* OUTPUT: dout_37 
* OUTPUT: dout_38 
* OUTPUT: dout_39 
* OUTPUT: dout_40 
* OUTPUT: dout_41 
* OUTPUT: dout_42 
* OUTPUT: dout_43 
* OUTPUT: dout_44 
* OUTPUT: dout_45 
* OUTPUT: dout_46 
* OUTPUT: dout_47 
* OUTPUT: dout_48 
* OUTPUT: dout_49 
* OUTPUT: dout_50 
* OUTPUT: dout_51 
* OUTPUT: dout_52 
* OUTPUT: dout_53 
* OUTPUT: dout_54 
* OUTPUT: dout_55 
* OUTPUT: dout_56 
* OUTPUT: dout_57 
* OUTPUT: dout_58 
* OUTPUT: dout_59 
* OUTPUT: dout_60 
* OUTPUT: dout_61 
* OUTPUT: dout_62 
* OUTPUT: dout_63 
* INPUT : clk 
* POWER : vdd 
* GROUND: gnd 
* rows: 1 cols: 64
Xdff_r0_c0 din_0 dout_0 CLK VDD GND sky130_fd_bd_sram__openram_sram_dff
Xdff_r0_c1 din_1 dout_1 CLK VDD GND sky130_fd_bd_sram__openram_sram_dff
Xdff_r0_c2 din_2 dout_2 CLK VDD GND sky130_fd_bd_sram__openram_sram_dff
Xdff_r0_c3 din_3 dout_3 CLK VDD GND sky130_fd_bd_sram__openram_sram_dff
Xdff_r0_c4 din_4 dout_4 CLK VDD GND sky130_fd_bd_sram__openram_sram_dff
Xdff_r0_c5 din_5 dout_5 CLK VDD GND sky130_fd_bd_sram__openram_sram_dff
Xdff_r0_c6 din_6 dout_6 CLK VDD GND sky130_fd_bd_sram__openram_sram_dff
Xdff_r0_c7 din_7 dout_7 CLK VDD GND sky130_fd_bd_sram__openram_sram_dff
Xdff_r0_c8 din_8 dout_8 CLK VDD GND sky130_fd_bd_sram__openram_sram_dff
Xdff_r0_c9 din_9 dout_9 CLK VDD GND sky130_fd_bd_sram__openram_sram_dff
Xdff_r0_c10 din_10 dout_10 CLK VDD GND sky130_fd_bd_sram__openram_sram_dff
Xdff_r0_c11 din_11 dout_11 CLK VDD GND sky130_fd_bd_sram__openram_sram_dff
Xdff_r0_c12 din_12 dout_12 CLK VDD GND sky130_fd_bd_sram__openram_sram_dff
Xdff_r0_c13 din_13 dout_13 CLK VDD GND sky130_fd_bd_sram__openram_sram_dff
Xdff_r0_c14 din_14 dout_14 CLK VDD GND sky130_fd_bd_sram__openram_sram_dff
Xdff_r0_c15 din_15 dout_15 CLK VDD GND sky130_fd_bd_sram__openram_sram_dff
Xdff_r0_c16 din_16 dout_16 CLK VDD GND sky130_fd_bd_sram__openram_sram_dff
Xdff_r0_c17 din_17 dout_17 CLK VDD GND sky130_fd_bd_sram__openram_sram_dff
Xdff_r0_c18 din_18 dout_18 CLK VDD GND sky130_fd_bd_sram__openram_sram_dff
Xdff_r0_c19 din_19 dout_19 CLK VDD GND sky130_fd_bd_sram__openram_sram_dff
Xdff_r0_c20 din_20 dout_20 CLK VDD GND sky130_fd_bd_sram__openram_sram_dff
Xdff_r0_c21 din_21 dout_21 CLK VDD GND sky130_fd_bd_sram__openram_sram_dff
Xdff_r0_c22 din_22 dout_22 CLK VDD GND sky130_fd_bd_sram__openram_sram_dff
Xdff_r0_c23 din_23 dout_23 CLK VDD GND sky130_fd_bd_sram__openram_sram_dff
Xdff_r0_c24 din_24 dout_24 CLK VDD GND sky130_fd_bd_sram__openram_sram_dff
Xdff_r0_c25 din_25 dout_25 CLK VDD GND sky130_fd_bd_sram__openram_sram_dff
Xdff_r0_c26 din_26 dout_26 CLK VDD GND sky130_fd_bd_sram__openram_sram_dff
Xdff_r0_c27 din_27 dout_27 CLK VDD GND sky130_fd_bd_sram__openram_sram_dff
Xdff_r0_c28 din_28 dout_28 CLK VDD GND sky130_fd_bd_sram__openram_sram_dff
Xdff_r0_c29 din_29 dout_29 CLK VDD GND sky130_fd_bd_sram__openram_sram_dff
Xdff_r0_c30 din_30 dout_30 CLK VDD GND sky130_fd_bd_sram__openram_sram_dff
Xdff_r0_c31 din_31 dout_31 CLK VDD GND sky130_fd_bd_sram__openram_sram_dff
Xdff_r0_c32 din_32 dout_32 CLK VDD GND sky130_fd_bd_sram__openram_sram_dff
Xdff_r0_c33 din_33 dout_33 CLK VDD GND sky130_fd_bd_sram__openram_sram_dff
Xdff_r0_c34 din_34 dout_34 CLK VDD GND sky130_fd_bd_sram__openram_sram_dff
Xdff_r0_c35 din_35 dout_35 CLK VDD GND sky130_fd_bd_sram__openram_sram_dff
Xdff_r0_c36 din_36 dout_36 CLK VDD GND sky130_fd_bd_sram__openram_sram_dff
Xdff_r0_c37 din_37 dout_37 CLK VDD GND sky130_fd_bd_sram__openram_sram_dff
Xdff_r0_c38 din_38 dout_38 CLK VDD GND sky130_fd_bd_sram__openram_sram_dff
Xdff_r0_c39 din_39 dout_39 CLK VDD GND sky130_fd_bd_sram__openram_sram_dff
Xdff_r0_c40 din_40 dout_40 CLK VDD GND sky130_fd_bd_sram__openram_sram_dff
Xdff_r0_c41 din_41 dout_41 CLK VDD GND sky130_fd_bd_sram__openram_sram_dff
Xdff_r0_c42 din_42 dout_42 CLK VDD GND sky130_fd_bd_sram__openram_sram_dff
Xdff_r0_c43 din_43 dout_43 CLK VDD GND sky130_fd_bd_sram__openram_sram_dff
Xdff_r0_c44 din_44 dout_44 CLK VDD GND sky130_fd_bd_sram__openram_sram_dff
Xdff_r0_c45 din_45 dout_45 CLK VDD GND sky130_fd_bd_sram__openram_sram_dff
Xdff_r0_c46 din_46 dout_46 CLK VDD GND sky130_fd_bd_sram__openram_sram_dff
Xdff_r0_c47 din_47 dout_47 CLK VDD GND sky130_fd_bd_sram__openram_sram_dff
Xdff_r0_c48 din_48 dout_48 CLK VDD GND sky130_fd_bd_sram__openram_sram_dff
Xdff_r0_c49 din_49 dout_49 CLK VDD GND sky130_fd_bd_sram__openram_sram_dff
Xdff_r0_c50 din_50 dout_50 CLK VDD GND sky130_fd_bd_sram__openram_sram_dff
Xdff_r0_c51 din_51 dout_51 CLK VDD GND sky130_fd_bd_sram__openram_sram_dff
Xdff_r0_c52 din_52 dout_52 CLK VDD GND sky130_fd_bd_sram__openram_sram_dff
Xdff_r0_c53 din_53 dout_53 CLK VDD GND sky130_fd_bd_sram__openram_sram_dff
Xdff_r0_c54 din_54 dout_54 CLK VDD GND sky130_fd_bd_sram__openram_sram_dff
Xdff_r0_c55 din_55 dout_55 CLK VDD GND sky130_fd_bd_sram__openram_sram_dff
Xdff_r0_c56 din_56 dout_56 CLK VDD GND sky130_fd_bd_sram__openram_sram_dff
Xdff_r0_c57 din_57 dout_57 CLK VDD GND sky130_fd_bd_sram__openram_sram_dff
Xdff_r0_c58 din_58 dout_58 CLK VDD GND sky130_fd_bd_sram__openram_sram_dff
Xdff_r0_c59 din_59 dout_59 CLK VDD GND sky130_fd_bd_sram__openram_sram_dff
Xdff_r0_c60 din_60 dout_60 CLK VDD GND sky130_fd_bd_sram__openram_sram_dff
Xdff_r0_c61 din_61 dout_61 CLK VDD GND sky130_fd_bd_sram__openram_sram_dff
Xdff_r0_c62 din_62 dout_62 CLK VDD GND sky130_fd_bd_sram__openram_sram_dff
Xdff_r0_c63 din_63 dout_63 CLK VDD GND sky130_fd_bd_sram__openram_sram_dff
.ENDS data_dff

.SUBCKT wmask_dff din_0 din_1 din_2 din_3 din_4 din_5 din_6 din_7 dout_0 dout_1 dout_2 dout_3 dout_4 dout_5 dout_6 dout_7 clk vdd gnd
*.PININFO din_0:I din_1:I din_2:I din_3:I din_4:I din_5:I din_6:I din_7:I dout_0:O dout_1:O dout_2:O dout_3:O dout_4:O dout_5:O dout_6:O dout_7:O clk:I vdd:B gnd:B
* INPUT : din_0 
* INPUT : din_1 
* INPUT : din_2 
* INPUT : din_3 
* INPUT : din_4 
* INPUT : din_5 
* INPUT : din_6 
* INPUT : din_7 
* OUTPUT: dout_0 
* OUTPUT: dout_1 
* OUTPUT: dout_2 
* OUTPUT: dout_3 
* OUTPUT: dout_4 
* OUTPUT: dout_5 
* OUTPUT: dout_6 
* OUTPUT: dout_7 
* INPUT : clk 
* POWER : vdd 
* GROUND: gnd 
* rows: 1 cols: 8
Xdff_r0_c0 din_0 dout_0 CLK VDD GND sky130_fd_bd_sram__openram_sram_dff
Xdff_r0_c1 din_1 dout_1 CLK VDD GND sky130_fd_bd_sram__openram_sram_dff
Xdff_r0_c2 din_2 dout_2 CLK VDD GND sky130_fd_bd_sram__openram_sram_dff
Xdff_r0_c3 din_3 dout_3 CLK VDD GND sky130_fd_bd_sram__openram_sram_dff
Xdff_r0_c4 din_4 dout_4 CLK VDD GND sky130_fd_bd_sram__openram_sram_dff
Xdff_r0_c5 din_5 dout_5 CLK VDD GND sky130_fd_bd_sram__openram_sram_dff
Xdff_r0_c6 din_6 dout_6 CLK VDD GND sky130_fd_bd_sram__openram_sram_dff
Xdff_r0_c7 din_7 dout_7 CLK VDD GND sky130_fd_bd_sram__openram_sram_dff
.ENDS wmask_dff
* Copyright 2020 The SkyWater PDK Authors
*
* Licensed under the Apache License, Version 2.0 (the "License");
* you may not use this file except in compliance with the License.
* You may obtain a copy of the License at
*
*     https://www.apache.org/licenses/LICENSE-2.0
*
* Unless required by applicable law or agreed to in writing, software
* distributed under the License is distributed on an "AS IS" BASIS,
* WITHOUT WARRANTIES OR CONDITIONS OF ANY KIND, either express or implied.
* See the License for the specific language governing permissions and
* limitations under the License.
*
* SPDX-License-Identifier: Apache-2.0

* NGSPICE file created from sky130_fd_bd_sram__openram_dp_nand2_dec.ext - technology: EFS8A


* Top level circuit sky130_fd_bd_sram__openram_dp_nand2_dec
.subckt sky130_fd_bd_sram__openram_dp_nand2_dec A B Z VDD GND

M1001 Z B VDD VDD sky130_fd_pr__pfet_01v8 W=1.12u L=0.15u m=1
M1002 VDD A Z VDD sky130_fd_pr__pfet_01v8 W=1.12u L=0.15u m=1
M1000 Z A a_n722_276# GND sky130_fd_pr__nfet_01v8 W=0.74u L=0.15u m=1
M1003 a_n722_276# B GND GND sky130_fd_pr__nfet_01v8 W=0.74u L=0.15u m=1
.ends


* spice ptx X{0} {1} sky130_fd_pr__nfet_01v8 m=1 w=0.36 l=0.15 pd=1.02 ps=1.02 as=0.14u ad=0.14u

* spice ptx X{0} {1} sky130_fd_pr__pfet_01v8 m=1 w=1.12 l=0.15 pd=2.54 ps=2.54 as=0.42u ad=0.42u

.SUBCKT pinv_dec A Z vdd gnd
*.PININFO A:I Z:O vdd:B gnd:B
* INPUT : A 
* OUTPUT: Z 
* POWER : vdd 
* GROUND: gnd 
Xpinv_pmos Z A vdd vdd sky130_fd_pr__pfet_01v8 m=1 w=1.12u l=0.15u
Xpinv_nmos Z A gnd gnd sky130_fd_pr__nfet_01v8 m=1 w=0.36u l=0.15u
.ENDS pinv_dec

.SUBCKT and2_dec A B Z vdd gnd
*.PININFO A:I B:I Z:O vdd:B gnd:B
* INPUT : A 
* INPUT : B 
* OUTPUT: Z 
* POWER : vdd 
* GROUND: gnd 
* size: 1
Xpand2_dec_nand A B zb_int vdd gnd sky130_fd_bd_sram__openram_dp_nand2_dec
Xpand2_dec_inv zb_int Z vdd gnd pinv_dec
.ENDS and2_dec
* Copyright 2020 The SkyWater PDK Authors
*
* Licensed under the Apache License, Version 2.0 (the "License");
* you may not use this file except in compliance with the License.
* You may obtain a copy of the License at
*
*     https://www.apache.org/licenses/LICENSE-2.0
*
* Unless required by applicable law or agreed to in writing, software
* distributed under the License is distributed on an "AS IS" BASIS,
* WITHOUT WARRANTIES OR CONDITIONS OF ANY KIND, either express or implied.
* See the License for the specific language governing permissions and
* limitations under the License.
*
* SPDX-License-Identifier: Apache-2.0

* NGSPICE file created from sky130_fd_bd_sram__openram_dp_nand3_dec.ext - technology: EFS8A


* Top level circuit sky130_fd_bd_sram__openram_dp_nand3_dec
.subckt sky130_fd_bd_sram__openram_dp_nand3_dec A B C Z VDD GND

M1001 Z A a_n346_328# GND sky130_fd_pr__nfet_01v8 W=0.74u L=0.15u m=1
M1002 a_n346_256# C GND GND sky130_fd_pr__nfet_01v8 W=0.74u L=0.15u m=1
M1003 a_n346_328# B a_n346_256# GND sky130_fd_pr__nfet_01v8 W=0.74u L=0.15u m=1
M1000 Z B VDD VDD sky130_fd_pr__pfet_01v8 W=1.12u L=0.15u m=1
M1004 Z A VDD VDD sky130_fd_pr__pfet_01v8 W=1.12u L=0.15u m=1
M1005 Z C VDD VDD sky130_fd_pr__pfet_01v8 W=1.12u L=0.15u m=1
.ends


.SUBCKT and3_dec A B C Z vdd gnd
*.PININFO A:I B:I C:I Z:O vdd:B gnd:B
* INPUT : A 
* INPUT : B 
* INPUT : C 
* OUTPUT: Z 
* POWER : vdd 
* GROUND: gnd 
* size: 1
Xpand3_dec_nand A B C zb_int vdd gnd sky130_fd_bd_sram__openram_dp_nand3_dec
Xpand3_dec_inv zb_int Z vdd gnd pinv_dec
.ENDS and3_dec

.SUBCKT hierarchical_predecode2x4 in_0 in_1 out_0 out_1 out_2 out_3 vdd gnd
*.PININFO in_0:I in_1:I out_0:O out_1:O out_2:O out_3:O vdd:B gnd:B
* INPUT : in_0 
* INPUT : in_1 
* OUTPUT: out_0 
* OUTPUT: out_1 
* OUTPUT: out_2 
* OUTPUT: out_3 
* POWER : vdd 
* GROUND: gnd 
Xpre_inv_0 in_0 inbar_0 vdd gnd pinv_dec
Xpre_inv_1 in_1 inbar_1 vdd gnd pinv_dec
XXpre2x4_and_0 inbar_0 inbar_1 out_0 vdd gnd and2_dec
XXpre2x4_and_1 in_0 inbar_1 out_1 vdd gnd and2_dec
XXpre2x4_and_2 inbar_0 in_1 out_2 vdd gnd and2_dec
XXpre2x4_and_3 in_0 in_1 out_3 vdd gnd and2_dec
.ENDS hierarchical_predecode2x4

.SUBCKT hierarchical_predecode3x8 in_0 in_1 in_2 out_0 out_1 out_2 out_3 out_4 out_5 out_6 out_7 vdd gnd
*.PININFO in_0:I in_1:I in_2:I out_0:O out_1:O out_2:O out_3:O out_4:O out_5:O out_6:O out_7:O vdd:B gnd:B
* INPUT : in_0 
* INPUT : in_1 
* INPUT : in_2 
* OUTPUT: out_0 
* OUTPUT: out_1 
* OUTPUT: out_2 
* OUTPUT: out_3 
* OUTPUT: out_4 
* OUTPUT: out_5 
* OUTPUT: out_6 
* OUTPUT: out_7 
* POWER : vdd 
* GROUND: gnd 
Xpre_inv_0 in_0 inbar_0 vdd gnd pinv_dec
Xpre_inv_1 in_1 inbar_1 vdd gnd pinv_dec
Xpre_inv_2 in_2 inbar_2 vdd gnd pinv_dec
XXpre3x8_and_0 inbar_0 inbar_1 inbar_2 out_0 vdd gnd and3_dec
XXpre3x8_and_1 in_0 inbar_1 inbar_2 out_1 vdd gnd and3_dec
XXpre3x8_and_2 inbar_0 in_1 inbar_2 out_2 vdd gnd and3_dec
XXpre3x8_and_3 in_0 in_1 inbar_2 out_3 vdd gnd and3_dec
XXpre3x8_and_4 inbar_0 inbar_1 in_2 out_4 vdd gnd and3_dec
XXpre3x8_and_5 in_0 inbar_1 in_2 out_5 vdd gnd and3_dec
XXpre3x8_and_6 inbar_0 in_1 in_2 out_6 vdd gnd and3_dec
XXpre3x8_and_7 in_0 in_1 in_2 out_7 vdd gnd and3_dec
.ENDS hierarchical_predecode3x8
* Copyright 2020 The SkyWater PDK Authors
*
* Licensed under the Apache License, Version 2.0 (the "License");
* you may not use this file except in compliance with the License.
* You may obtain a copy of the License at
*
*     https://www.apache.org/licenses/LICENSE-2.0
*
* Unless required by applicable law or agreed to in writing, software
* distributed under the License is distributed on an "AS IS" BASIS,
* WITHOUT WARRANTIES OR CONDITIONS OF ANY KIND, either express or implied.
* See the License for the specific language governing permissions and
* limitations under the License.
*
* SPDX-License-Identifier: Apache-2.0

* NGSPICE file created from sky130_fd_bd_sram__openram_dp_nand4_dec.ext - technology: EFS8A

.subckt sky130_fd_bd_sram__openram_dp_nand4_dec A B C D Z VDD GND
M1000 Z A a_406_334# GND sky130_fd_pr__nfet_01v8 W=0.74u L=0.15u m=1
M1004 a_406_190# D GND GND sky130_fd_pr__nfet_01v8 W=0.74u L=0.15u m=1
M1005 a_406_262# C a_406_190# GND sky130_fd_pr__nfet_01v8 W=0.74u L=0.15u m=1
M1007 a_406_334# B a_406_262# GND sky130_fd_pr__nfet_01v8 W=0.74u L=0.15u m=1
M1001 Z A VDD VDD sky130_fd_pr__pfet_01v8 W=1.12u L=0.15u m=1
M1002 VDD C Z VDD sky130_fd_pr__pfet_01v8 W=1.12u L=0.15u m=1
M1003 VDD D Z VDD sky130_fd_pr__pfet_01v8 W=1.12u L=0.15u m=1
M1006 Z B VDD VDD sky130_fd_pr__pfet_01v8 W=1.12u L=0.15u m=1
.ends


.SUBCKT and4_dec A B C D Z vdd gnd
*.PININFO A:I B:I C:I D:I Z:O vdd:B gnd:B
* INPUT : A 
* INPUT : B 
* INPUT : C 
* INPUT : D 
* OUTPUT: Z 
* POWER : vdd 
* GROUND: gnd 
* size: 1
Xpand4_dec_nand A B C D zb_int vdd gnd sky130_fd_bd_sram__openram_dp_nand4_dec
Xpand4_dec_inv zb_int Z vdd gnd pinv_dec
.ENDS and4_dec

.SUBCKT hierarchical_predecode4x16 in_0 in_1 in_2 in_3 out_0 out_1 out_2 out_3 out_4 out_5 out_6 out_7 out_8 out_9 out_10 out_11 out_12 out_13 out_14 out_15 vdd gnd
*.PININFO in_0:I in_1:I in_2:I in_3:I out_0:O out_1:O out_2:O out_3:O out_4:O out_5:O out_6:O out_7:O out_8:O out_9:O out_10:O out_11:O out_12:O out_13:O out_14:O out_15:O vdd:B gnd:B
* INPUT : in_0 
* INPUT : in_1 
* INPUT : in_2 
* INPUT : in_3 
* OUTPUT: out_0 
* OUTPUT: out_1 
* OUTPUT: out_2 
* OUTPUT: out_3 
* OUTPUT: out_4 
* OUTPUT: out_5 
* OUTPUT: out_6 
* OUTPUT: out_7 
* OUTPUT: out_8 
* OUTPUT: out_9 
* OUTPUT: out_10 
* OUTPUT: out_11 
* OUTPUT: out_12 
* OUTPUT: out_13 
* OUTPUT: out_14 
* OUTPUT: out_15 
* POWER : vdd 
* GROUND: gnd 
Xpre_inv_0 in_0 inbar_0 vdd gnd pinv_dec
Xpre_inv_1 in_1 inbar_1 vdd gnd pinv_dec
Xpre_inv_2 in_2 inbar_2 vdd gnd pinv_dec
Xpre_inv_3 in_3 inbar_3 vdd gnd pinv_dec
XXpre4x16_and_0 inbar_0 inbar_1 inbar_2 inbar_3 out_0 vdd gnd and4_dec
XXpre4x16_and_1 in_0 inbar_1 inbar_2 inbar_3 out_1 vdd gnd and4_dec
XXpre4x16_and_2 inbar_0 in_1 inbar_2 inbar_3 out_2 vdd gnd and4_dec
XXpre4x16_and_3 in_0 in_1 inbar_2 inbar_3 out_3 vdd gnd and4_dec
XXpre4x16_and_4 inbar_0 inbar_1 in_2 inbar_3 out_4 vdd gnd and4_dec
XXpre4x16_and_5 in_0 inbar_1 in_2 inbar_3 out_5 vdd gnd and4_dec
XXpre4x16_and_6 inbar_0 in_1 in_2 inbar_3 out_6 vdd gnd and4_dec
XXpre4x16_and_7 in_0 in_1 in_2 inbar_3 out_7 vdd gnd and4_dec
XXpre4x16_and_8 inbar_0 inbar_1 inbar_2 in_3 out_8 vdd gnd and4_dec
XXpre4x16_and_9 in_0 inbar_1 inbar_2 in_3 out_9 vdd gnd and4_dec
XXpre4x16_and_10 inbar_0 in_1 inbar_2 in_3 out_10 vdd gnd and4_dec
XXpre4x16_and_11 in_0 in_1 inbar_2 in_3 out_11 vdd gnd and4_dec
XXpre4x16_and_12 inbar_0 inbar_1 in_2 in_3 out_12 vdd gnd and4_dec
XXpre4x16_and_13 in_0 inbar_1 in_2 in_3 out_13 vdd gnd and4_dec
XXpre4x16_and_14 inbar_0 in_1 in_2 in_3 out_14 vdd gnd and4_dec
XXpre4x16_and_15 in_0 in_1 in_2 in_3 out_15 vdd gnd and4_dec
.ENDS hierarchical_predecode4x16

.SUBCKT hierarchical_decoder addr_0 addr_1 addr_2 addr_3 addr_4 addr_5 addr_6 decode_0 decode_1 decode_2 decode_3 decode_4 decode_5 decode_6 decode_7 decode_8 decode_9 decode_10 decode_11 decode_12 decode_13 decode_14 decode_15 decode_16 decode_17 decode_18 decode_19 decode_20 decode_21 decode_22 decode_23 decode_24 decode_25 decode_26 decode_27 decode_28 decode_29 decode_30 decode_31 decode_32 decode_33 decode_34 decode_35 decode_36 decode_37 decode_38 decode_39 decode_40 decode_41 decode_42 decode_43 decode_44 decode_45 decode_46 decode_47 decode_48 decode_49 decode_50 decode_51 decode_52 decode_53 decode_54 decode_55 decode_56 decode_57 decode_58 decode_59 decode_60 decode_61 decode_62 decode_63 decode_64 decode_65 decode_66 decode_67 decode_68 decode_69 decode_70 decode_71 decode_72 decode_73 decode_74 decode_75 decode_76 decode_77 decode_78 decode_79 decode_80 decode_81 decode_82 decode_83 decode_84 decode_85 decode_86 decode_87 decode_88 decode_89 decode_90 decode_91 decode_92 decode_93 decode_94 decode_95 decode_96 decode_97 decode_98 decode_99 decode_100 decode_101 decode_102 decode_103 decode_104 decode_105 decode_106 decode_107 decode_108 decode_109 decode_110 decode_111 decode_112 decode_113 decode_114 decode_115 decode_116 decode_117 decode_118 decode_119 decode_120 decode_121 decode_122 decode_123 decode_124 decode_125 decode_126 decode_127 vdd gnd
*.PININFO addr_0:I addr_1:I addr_2:I addr_3:I addr_4:I addr_5:I addr_6:I decode_0:O decode_1:O decode_2:O decode_3:O decode_4:O decode_5:O decode_6:O decode_7:O decode_8:O decode_9:O decode_10:O decode_11:O decode_12:O decode_13:O decode_14:O decode_15:O decode_16:O decode_17:O decode_18:O decode_19:O decode_20:O decode_21:O decode_22:O decode_23:O decode_24:O decode_25:O decode_26:O decode_27:O decode_28:O decode_29:O decode_30:O decode_31:O decode_32:O decode_33:O decode_34:O decode_35:O decode_36:O decode_37:O decode_38:O decode_39:O decode_40:O decode_41:O decode_42:O decode_43:O decode_44:O decode_45:O decode_46:O decode_47:O decode_48:O decode_49:O decode_50:O decode_51:O decode_52:O decode_53:O decode_54:O decode_55:O decode_56:O decode_57:O decode_58:O decode_59:O decode_60:O decode_61:O decode_62:O decode_63:O decode_64:O decode_65:O decode_66:O decode_67:O decode_68:O decode_69:O decode_70:O decode_71:O decode_72:O decode_73:O decode_74:O decode_75:O decode_76:O decode_77:O decode_78:O decode_79:O decode_80:O decode_81:O decode_82:O decode_83:O decode_84:O decode_85:O decode_86:O decode_87:O decode_88:O decode_89:O decode_90:O decode_91:O decode_92:O decode_93:O decode_94:O decode_95:O decode_96:O decode_97:O decode_98:O decode_99:O decode_100:O decode_101:O decode_102:O decode_103:O decode_104:O decode_105:O decode_106:O decode_107:O decode_108:O decode_109:O decode_110:O decode_111:O decode_112:O decode_113:O decode_114:O decode_115:O decode_116:O decode_117:O decode_118:O decode_119:O decode_120:O decode_121:O decode_122:O decode_123:O decode_124:O decode_125:O decode_126:O decode_127:O vdd:B gnd:B
* INPUT : addr_0 
* INPUT : addr_1 
* INPUT : addr_2 
* INPUT : addr_3 
* INPUT : addr_4 
* INPUT : addr_5 
* INPUT : addr_6 
* OUTPUT: decode_0 
* OUTPUT: decode_1 
* OUTPUT: decode_2 
* OUTPUT: decode_3 
* OUTPUT: decode_4 
* OUTPUT: decode_5 
* OUTPUT: decode_6 
* OUTPUT: decode_7 
* OUTPUT: decode_8 
* OUTPUT: decode_9 
* OUTPUT: decode_10 
* OUTPUT: decode_11 
* OUTPUT: decode_12 
* OUTPUT: decode_13 
* OUTPUT: decode_14 
* OUTPUT: decode_15 
* OUTPUT: decode_16 
* OUTPUT: decode_17 
* OUTPUT: decode_18 
* OUTPUT: decode_19 
* OUTPUT: decode_20 
* OUTPUT: decode_21 
* OUTPUT: decode_22 
* OUTPUT: decode_23 
* OUTPUT: decode_24 
* OUTPUT: decode_25 
* OUTPUT: decode_26 
* OUTPUT: decode_27 
* OUTPUT: decode_28 
* OUTPUT: decode_29 
* OUTPUT: decode_30 
* OUTPUT: decode_31 
* OUTPUT: decode_32 
* OUTPUT: decode_33 
* OUTPUT: decode_34 
* OUTPUT: decode_35 
* OUTPUT: decode_36 
* OUTPUT: decode_37 
* OUTPUT: decode_38 
* OUTPUT: decode_39 
* OUTPUT: decode_40 
* OUTPUT: decode_41 
* OUTPUT: decode_42 
* OUTPUT: decode_43 
* OUTPUT: decode_44 
* OUTPUT: decode_45 
* OUTPUT: decode_46 
* OUTPUT: decode_47 
* OUTPUT: decode_48 
* OUTPUT: decode_49 
* OUTPUT: decode_50 
* OUTPUT: decode_51 
* OUTPUT: decode_52 
* OUTPUT: decode_53 
* OUTPUT: decode_54 
* OUTPUT: decode_55 
* OUTPUT: decode_56 
* OUTPUT: decode_57 
* OUTPUT: decode_58 
* OUTPUT: decode_59 
* OUTPUT: decode_60 
* OUTPUT: decode_61 
* OUTPUT: decode_62 
* OUTPUT: decode_63 
* OUTPUT: decode_64 
* OUTPUT: decode_65 
* OUTPUT: decode_66 
* OUTPUT: decode_67 
* OUTPUT: decode_68 
* OUTPUT: decode_69 
* OUTPUT: decode_70 
* OUTPUT: decode_71 
* OUTPUT: decode_72 
* OUTPUT: decode_73 
* OUTPUT: decode_74 
* OUTPUT: decode_75 
* OUTPUT: decode_76 
* OUTPUT: decode_77 
* OUTPUT: decode_78 
* OUTPUT: decode_79 
* OUTPUT: decode_80 
* OUTPUT: decode_81 
* OUTPUT: decode_82 
* OUTPUT: decode_83 
* OUTPUT: decode_84 
* OUTPUT: decode_85 
* OUTPUT: decode_86 
* OUTPUT: decode_87 
* OUTPUT: decode_88 
* OUTPUT: decode_89 
* OUTPUT: decode_90 
* OUTPUT: decode_91 
* OUTPUT: decode_92 
* OUTPUT: decode_93 
* OUTPUT: decode_94 
* OUTPUT: decode_95 
* OUTPUT: decode_96 
* OUTPUT: decode_97 
* OUTPUT: decode_98 
* OUTPUT: decode_99 
* OUTPUT: decode_100 
* OUTPUT: decode_101 
* OUTPUT: decode_102 
* OUTPUT: decode_103 
* OUTPUT: decode_104 
* OUTPUT: decode_105 
* OUTPUT: decode_106 
* OUTPUT: decode_107 
* OUTPUT: decode_108 
* OUTPUT: decode_109 
* OUTPUT: decode_110 
* OUTPUT: decode_111 
* OUTPUT: decode_112 
* OUTPUT: decode_113 
* OUTPUT: decode_114 
* OUTPUT: decode_115 
* OUTPUT: decode_116 
* OUTPUT: decode_117 
* OUTPUT: decode_118 
* OUTPUT: decode_119 
* OUTPUT: decode_120 
* OUTPUT: decode_121 
* OUTPUT: decode_122 
* OUTPUT: decode_123 
* OUTPUT: decode_124 
* OUTPUT: decode_125 
* OUTPUT: decode_126 
* OUTPUT: decode_127 
* POWER : vdd 
* GROUND: gnd 
Xpre_0 addr_0 addr_1 out_0 out_1 out_2 out_3 vdd gnd hierarchical_predecode2x4
Xpre_1 addr_2 addr_3 out_4 out_5 out_6 out_7 vdd gnd hierarchical_predecode2x4
Xpre3x8_0 addr_4 addr_5 addr_6 out_8 out_9 out_10 out_11 out_12 out_13 out_14 out_15 vdd gnd hierarchical_predecode3x8
XDEC_AND_0 out_0 out_4 out_8 decode_0 vdd gnd and3_dec
XDEC_AND_16 out_0 out_4 out_9 decode_16 vdd gnd and3_dec
XDEC_AND_32 out_0 out_4 out_10 decode_32 vdd gnd and3_dec
XDEC_AND_48 out_0 out_4 out_11 decode_48 vdd gnd and3_dec
XDEC_AND_64 out_0 out_4 out_12 decode_64 vdd gnd and3_dec
XDEC_AND_80 out_0 out_4 out_13 decode_80 vdd gnd and3_dec
XDEC_AND_96 out_0 out_4 out_14 decode_96 vdd gnd and3_dec
XDEC_AND_112 out_0 out_4 out_15 decode_112 vdd gnd and3_dec
XDEC_AND_4 out_0 out_5 out_8 decode_4 vdd gnd and3_dec
XDEC_AND_20 out_0 out_5 out_9 decode_20 vdd gnd and3_dec