**************************************************
* OpenRAM generated memory.
* Words: 64
* Data bits: 44
* Banks: 1
* Column mux: 1:1
**************************************************
* Copyright 2020 The SkyWater PDK Authors
*
* Licensed under the Apache License, Version 2.0 (the "License");
* you may not use this file except in compliance with the License.
* You may obtain a copy of the License at
*
*     https://www.apache.org/licenses/LICENSE-2.0
*
* Unless required by applicable law or agreed to in writing, software
* distributed under the License is distributed on an "AS IS" BASIS,
* WITHOUT WARRANTIES OR CONDITIONS OF ANY KIND, either express or implied.
* See the License for the specific language governing permissions and
* limitations under the License.
*
* SPDX-License-Identifier: Apache-2.0

* SPICE3 file created from sky130_fd_bd_sram__openram_sram_dff.ext - technology: EFS8A

.subckt sky130_fd_bd_sram__openram_sram_dff D Q CLK VDD GND
X1000 a_511_725# a_n8_115# VDD VDD sky130_fd_pr__pfet_01v8 W=3u L=0.15u m=1
X1001 a_353_115# CLK a_11_624# GND sky130_fd_pr__nfet_01v8 W=1u L=0.15u m=1
X1002 a_353_725# a_203_89# a_11_624# VDD sky130_fd_pr__pfet_01v8 W=3u L=0.15u m=1
X1003 a_11_624# a_203_89# a_161_115# GND sky130_fd_pr__nfet_01v8 W=1u L=0.15u m=1
X1004 a_11_624# CLK a_161_725# VDD sky130_fd_pr__pfet_01v8 W=3u L=0.15u m=1
X1005 GND Q a_703_115# GND sky130_fd_pr__nfet_01v8 W=1u L=0.15u m=1
X1006 VDD Q a_703_725# VDD sky130_fd_pr__pfet_01v8 W=3u L=0.15u m=1
X1007 a_203_89# CLK GND GND sky130_fd_pr__nfet_01v8 W=1u L=0.15u m=1
X1008 a_203_89# CLK VDD VDD sky130_fd_pr__pfet_01v8 W=3u L=0.15u m=1
X1009 a_161_115# D GND GND sky130_fd_pr__nfet_01v8 W=1u L=0.15u m=1
X1010 a_161_725# D VDD VDD sky130_fd_pr__pfet_01v8 W=3u L=0.15u m=1
X1011 GND a_11_624# a_n8_115# GND sky130_fd_pr__nfet_01v8 W=1u L=0.15u m=1
X1012 a_703_115# a_203_89# ON GND sky130_fd_pr__nfet_01v8 W=1u L=0.15u m=1
X1013 VDD a_11_624# a_n8_115# VDD sky130_fd_pr__pfet_01v8 W=3u L=0.15u m=1
X1014 a_703_725# CLK ON VDD sky130_fd_pr__pfet_01v8 W=3u L=0.15u m=1
X1015 Q ON VDD VDD sky130_fd_pr__pfet_01v8 W=3u L=0.15u m=1
X1016 Q ON GND GND sky130_fd_pr__nfet_01v8 W=1u L=0.15u m=1
X1017 ON a_203_89# a_511_725# VDD sky130_fd_pr__pfet_01v8 W=3u L=0.15u m=1
X1018 ON CLK a_511_115# GND sky130_fd_pr__nfet_01v8 W=1u L=0.15u m=1
X1019 GND a_n8_115# a_353_115# GND sky130_fd_pr__nfet_01v8 W=1u L=0.15u m=1
X1020 VDD a_n8_115# a_353_725# VDD sky130_fd_pr__pfet_01v8 W=3u L=0.15u m=1
X1021 a_511_115# a_n8_115# GND GND sky130_fd_pr__nfet_01v8 W=1u L=0.15u m=1
.ends

.SUBCKT row_addr_dff din_0 din_1 din_2 din_3 din_4 din_5 dout_0 dout_1 dout_2 dout_3 dout_4 dout_5 clk vdd gnd
*.PININFO din_0:I din_1:I din_2:I din_3:I din_4:I din_5:I dout_0:O dout_1:O dout_2:O dout_3:O dout_4:O dout_5:O clk:I vdd:B gnd:B
* INPUT : din_0 
* INPUT : din_1 
* INPUT : din_2 
* INPUT : din_3 
* INPUT : din_4 
* INPUT : din_5 
* OUTPUT: dout_0 
* OUTPUT: dout_1 
* OUTPUT: dout_2 
* OUTPUT: dout_3 
* OUTPUT: dout_4 
* OUTPUT: dout_5 
* INPUT : clk 
* POWER : vdd 
* GROUND: gnd 
* rows: 6 cols: 1
Xdff_r0_c0 din_0 dout_0 CLK VDD GND sky130_fd_bd_sram__openram_sram_dff
Xdff_r1_c0 din_1 dout_1 CLK VDD GND sky130_fd_bd_sram__openram_sram_dff
Xdff_r2_c0 din_2 dout_2 CLK VDD GND sky130_fd_bd_sram__openram_sram_dff
Xdff_r3_c0 din_3 dout_3 CLK VDD GND sky130_fd_bd_sram__openram_sram_dff
Xdff_r4_c0 din_4 dout_4 CLK VDD GND sky130_fd_bd_sram__openram_sram_dff
Xdff_r5_c0 din_5 dout_5 CLK VDD GND sky130_fd_bd_sram__openram_sram_dff
.ENDS row_addr_dff

.SUBCKT data_dff din_0 din_1 din_2 din_3 din_4 din_5 din_6 din_7 din_8 din_9 din_10 din_11 din_12 din_13 din_14 din_15 din_16 din_17 din_18 din_19 din_20 din_21 din_22 din_23 din_24 din_25 din_26 din_27 din_28 din_29 din_30 din_31 din_32 din_33 din_34 din_35 din_36 din_37 din_38 din_39 din_40 din_41 din_42 din_43 dout_0 dout_1 dout_2 dout_3 dout_4 dout_5 dout_6 dout_7 dout_8 dout_9 dout_10 dout_11 dout_12 dout_13 dout_14 dout_15 dout_16 dout_17 dout_18 dout_19 dout_20 dout_21 dout_22 dout_23 dout_24 dout_25 dout_26 dout_27 dout_28 dout_29 dout_30 dout_31 dout_32 dout_33 dout_34 dout_35 dout_36 dout_37 dout_38 dout_39 dout_40 dout_41 dout_42 dout_43 clk vdd gnd
*.PININFO din_0:I din_1:I din_2:I din_3:I din_4:I din_5:I din_6:I din_7:I din_8:I din_9:I din_10:I din_11:I din_12:I din_13:I din_14:I din_15:I din_16:I din_17:I din_18:I din_19:I din_20:I din_21:I din_22:I din_23:I din_24:I din_25:I din_26:I din_27:I din_28:I din_29:I din_30:I din_31:I din_32:I din_33:I din_34:I din_35:I din_36:I din_37:I din_38:I din_39:I din_40:I din_41:I din_42:I din_43:I dout_0:O dout_1:O dout_2:O dout_3:O dout_4:O dout_5:O dout_6:O dout_7:O dout_8:O dout_9:O dout_10:O dout_11:O dout_12:O dout_13:O dout_14:O dout_15:O dout_16:O dout_17:O dout_18:O dout_19:O dout_20:O dout_21:O dout_22:O dout_23:O dout_24:O dout_25:O dout_26:O dout_27:O dout_28:O dout_29:O dout_30:O dout_31:O dout_32:O dout_33:O dout_34:O dout_35:O dout_36:O dout_37:O dout_38:O dout_39:O dout_40:O dout_41:O dout_42:O dout_43:O clk:I vdd:B gnd:B
* INPUT : din_0 
* INPUT : din_1 
* INPUT : din_2 
* INPUT : din_3 
* INPUT : din_4 
* INPUT : din_5 
* INPUT : din_6 
* INPUT : din_7 
* INPUT : din_8 
* INPUT : din_9 
* INPUT : din_10 
* INPUT : din_11 
* INPUT : din_12 
* INPUT : din_13 
* INPUT : din_14 
* INPUT : din_15 
* INPUT : din_16 
* INPUT : din_17 
* INPUT : din_18 
* INPUT : din_19 
* INPUT : din_20 
* INPUT : din_21 
* INPUT : din_22 
* INPUT : din_23 
* INPUT : din_24 
* INPUT : din_25 
* INPUT : din_26 
* INPUT : din_27 
* INPUT : din_28 
* INPUT : din_29 
* INPUT : din_30 
* INPUT : din_31 
* INPUT : din_32 
* INPUT : din_33 
* INPUT : din_34 
* INPUT : din_35 
* INPUT : din_36 
* INPUT : din_37 
* INPUT : din_38 
* INPUT : din_39 
* INPUT : din_40 
* INPUT : din_41 
* INPUT : din_42 
* INPUT : din_43 
* OUTPUT: dout_0 
* OUTPUT: dout_1 
* OUTPUT: dout_2 
* OUTPUT: dout_3 
* OUTPUT: dout_4 
* OUTPUT: dout_5 
* OUTPUT: dout_6 
* OUTPUT: dout_7 
* OUTPUT: dout_8 
* OUTPUT: dout_9 
* OUTPUT: dout_10 
* OUTPUT: dout_11 
* OUTPUT: dout_12 
* OUTPUT: dout_13 
* OUTPUT: dout_14 
* OUTPUT: dout_15 
* OUTPUT: dout_16 
* OUTPUT: dout_17 
* OUTPUT: dout_18 
* OUTPUT: dout_19 
* OUTPUT: dout_20 
* OUTPUT: dout_21 
* OUTPUT: dout_22 
* OUTPUT: dout_23 
* OUTPUT: dout_24 
* OUTPUT: dout_25 
* OUTPUT: dout_26 
* OUTPUT: dout_27 
* OUTPUT: dout_28 
* OUTPUT: dout_29 
* OUTPUT: dout_30 
* OUTPUT: dout_31 
* OUTPUT: dout_32 
* OUTPUT: dout_33 
* OUTPUT: dout_34 
* OUTPUT: dout_35 
* OUTPUT: dout_36 
* OUTPUT: dout_37 
* OUTPUT: dout_38 
* OUTPUT: dout_39 
* OUTPUT: dout_40 
* OUTPUT: dout_41 
* OUTPUT: dout_42 
* OUTPUT: dout_43 
* INPUT : clk 
* POWER : vdd 
* GROUND: gnd 
* rows: 1 cols: 44
Xdff_r0_c0 din_0 dout_0 CLK VDD GND sky130_fd_bd_sram__openram_sram_dff
Xdff_r0_c1 din_1 dout_1 CLK VDD GND sky130_fd_bd_sram__openram_sram_dff
Xdff_r0_c2 din_2 dout_2 CLK VDD GND sky130_fd_bd_sram__openram_sram_dff
Xdff_r0_c3 din_3 dout_3 CLK VDD GND sky130_fd_bd_sram__openram_sram_dff
Xdff_r0_c4 din_4 dout_4 CLK VDD GND sky130_fd_bd_sram__openram_sram_dff
Xdff_r0_c5 din_5 dout_5 CLK VDD GND sky130_fd_bd_sram__openram_sram_dff
Xdff_r0_c6 din_6 dout_6 CLK VDD GND sky130_fd_bd_sram__openram_sram_dff
Xdff_r0_c7 din_7 dout_7 CLK VDD GND sky130_fd_bd_sram__openram_sram_dff
Xdff_r0_c8 din_8 dout_8 CLK VDD GND sky130_fd_bd_sram__openram_sram_dff
Xdff_r0_c9 din_9 dout_9 CLK VDD GND sky130_fd_bd_sram__openram_sram_dff
Xdff_r0_c10 din_10 dout_10 CLK VDD GND sky130_fd_bd_sram__openram_sram_dff
Xdff_r0_c11 din_11 dout_11 CLK VDD GND sky130_fd_bd_sram__openram_sram_dff
Xdff_r0_c12 din_12 dout_12 CLK VDD GND sky130_fd_bd_sram__openram_sram_dff
Xdff_r0_c13 din_13 dout_13 CLK VDD GND sky130_fd_bd_sram__openram_sram_dff
Xdff_r0_c14 din_14 dout_14 CLK VDD GND sky130_fd_bd_sram__openram_sram_dff
Xdff_r0_c15 din_15 dout_15 CLK VDD GND sky130_fd_bd_sram__openram_sram_dff
Xdff_r0_c16 din_16 dout_16 CLK VDD GND sky130_fd_bd_sram__openram_sram_dff
Xdff_r0_c17 din_17 dout_17 CLK VDD GND sky130_fd_bd_sram__openram_sram_dff
Xdff_r0_c18 din_18 dout_18 CLK VDD GND sky130_fd_bd_sram__openram_sram_dff
Xdff_r0_c19 din_19 dout_19 CLK VDD GND sky130_fd_bd_sram__openram_sram_dff
Xdff_r0_c20 din_20 dout_20 CLK VDD GND sky130_fd_bd_sram__openram_sram_dff
Xdff_r0_c21 din_21 dout_21 CLK VDD GND sky130_fd_bd_sram__openram_sram_dff
Xdff_r0_c22 din_22 dout_22 CLK VDD GND sky130_fd_bd_sram__openram_sram_dff
Xdff_r0_c23 din_23 dout_23 CLK VDD GND sky130_fd_bd_sram__openram_sram_dff
Xdff_r0_c24 din_24 dout_24 CLK VDD GND sky130_fd_bd_sram__openram_sram_dff
Xdff_r0_c25 din_25 dout_25 CLK VDD GND sky130_fd_bd_sram__openram_sram_dff
Xdff_r0_c26 din_26 dout_26 CLK VDD GND sky130_fd_bd_sram__openram_sram_dff
Xdff_r0_c27 din_27 dout_27 CLK VDD GND sky130_fd_bd_sram__openram_sram_dff
Xdff_r0_c28 din_28 dout_28 CLK VDD GND sky130_fd_bd_sram__openram_sram_dff
Xdff_r0_c29 din_29 dout_29 CLK VDD GND sky130_fd_bd_sram__openram_sram_dff
Xdff_r0_c30 din_30 dout_30 CLK VDD GND sky130_fd_bd_sram__openram_sram_dff
Xdff_r0_c31 din_31 dout_31 CLK VDD GND sky130_fd_bd_sram__openram_sram_dff
Xdff_r0_c32 din_32 dout_32 CLK VDD GND sky130_fd_bd_sram__openram_sram_dff
Xdff_r0_c33 din_33 dout_33 CLK VDD GND sky130_fd_bd_sram__openram_sram_dff
Xdff_r0_c34 din_34 dout_34 CLK VDD GND sky130_fd_bd_sram__openram_sram_dff
Xdff_r0_c35 din_35 dout_35 CLK VDD GND sky130_fd_bd_sram__openram_sram_dff
Xdff_r0_c36 din_36 dout_36 CLK VDD GND sky130_fd_bd_sram__openram_sram_dff
Xdff_r0_c37 din_37 dout_37 CLK VDD GND sky130_fd_bd_sram__openram_sram_dff
Xdff_r0_c38 din_38 dout_38 CLK VDD GND sky130_fd_bd_sram__openram_sram_dff
Xdff_r0_c39 din_39 dout_39 CLK VDD GND sky130_fd_bd_sram__openram_sram_dff
Xdff_r0_c40 din_40 dout_40 CLK VDD GND sky130_fd_bd_sram__openram_sram_dff
Xdff_r0_c41 din_41 dout_41 CLK VDD GND sky130_fd_bd_sram__openram_sram_dff
Xdff_r0_c42 din_42 dout_42 CLK VDD GND sky130_fd_bd_sram__openram_sram_dff
Xdff_r0_c43 din_43 dout_43 CLK VDD GND sky130_fd_bd_sram__openram_sram_dff
.ENDS data_dff

.SUBCKT wmask_dff din_0 din_1 din_2 din_3 din_4 din_5 dout_0 dout_1 dout_2 dout_3 dout_4 dout_5 clk vdd gnd
*.PININFO din_0:I din_1:I din_2:I din_3:I din_4:I din_5:I dout_0:O dout_1:O dout_2:O dout_3:O dout_4:O dout_5:O clk:I vdd:B gnd:B
* INPUT : din_0 
* INPUT : din_1 
* INPUT : din_2 
* INPUT : din_3 
* INPUT : din_4 
* INPUT : din_5 
* OUTPUT: dout_0 
* OUTPUT: dout_1 
* OUTPUT: dout_2 
* OUTPUT: dout_3 
* OUTPUT: dout_4 
* OUTPUT: dout_5 
* INPUT : clk 
* POWER : vdd 
* GROUND: gnd 
* rows: 1 cols: 6
Xdff_r0_c0 din_0 dout_0 CLK VDD GND sky130_fd_bd_sram__openram_sram_dff
Xdff_r0_c1 din_1 dout_1 CLK VDD GND sky130_fd_bd_sram__openram_sram_dff
Xdff_r0_c2 din_2 dout_2 CLK VDD GND sky130_fd_bd_sram__openram_sram_dff
Xdff_r0_c3 din_3 dout_3 CLK VDD GND sky130_fd_bd_sram__openram_sram_dff
Xdff_r0_c4 din_4 dout_4 CLK VDD GND sky130_fd_bd_sram__openram_sram_dff
Xdff_r0_c5 din_5 dout_5 CLK VDD GND sky130_fd_bd_sram__openram_sram_dff
.ENDS wmask_dff
* Copyright 2020 The SkyWater PDK Authors
*
* Licensed under the Apache License, Version 2.0 (the "License");
* you may not use this file except in compliance with the License.
* You may obtain a copy of the License at
*
*     https://www.apache.org/licenses/LICENSE-2.0
*
* Unless required by applicable law or agreed to in writing, software
* distributed under the License is distributed on an "AS IS" BASIS,
* WITHOUT WARRANTIES OR CONDITIONS OF ANY KIND, either express or implied.
* See the License for the specific language governing permissions and
* limitations under the License.
*
* SPDX-License-Identifier: Apache-2.0

* NGSPICE file created from sky130_fd_bd_sram__openram_dp_nand2_dec.ext - technology: EFS8A


* Top level circuit sky130_fd_bd_sram__openram_dp_nand2_dec
.subckt sky130_fd_bd_sram__openram_dp_nand2_dec A B Z VDD GND

M1001 Z B VDD VDD sky130_fd_pr__pfet_01v8 W=1.12u L=0.15u m=1
M1002 VDD A Z VDD sky130_fd_pr__pfet_01v8 W=1.12u L=0.15u m=1
M1000 Z A a_n722_276# GND sky130_fd_pr__nfet_01v8 W=0.74u L=0.15u m=1
M1003 a_n722_276# B GND GND sky130_fd_pr__nfet_01v8 W=0.74u L=0.15u m=1
.ends


* spice ptx X{0} {1} sky130_fd_pr__nfet_01v8 m=1 w=0.36 l=0.15 pd=1.02 ps=1.02 as=0.14u ad=0.14u

* spice ptx X{0} {1} sky130_fd_pr__pfet_01v8 m=1 w=1.12 l=0.15 pd=2.54 ps=2.54 as=0.42u ad=0.42u

.SUBCKT pinv_dec A Z vdd gnd
*.PININFO A:I Z:O vdd:B gnd:B
* INPUT : A 
* OUTPUT: Z 
* POWER : vdd 
* GROUND: gnd 
Xpinv_pmos Z A vdd vdd sky130_fd_pr__pfet_01v8 m=1 w=1.12u l=0.15u
Xpinv_nmos Z A gnd gnd sky130_fd_pr__nfet_01v8 m=1 w=0.36u l=0.15u
.ENDS pinv_dec

.SUBCKT and2_dec A B Z vdd gnd
*.PININFO A:I B:I Z:O vdd:B gnd:B
* INPUT : A 
* INPUT : B 
* OUTPUT: Z 
* POWER : vdd 
* GROUND: gnd 
* size: 1
Xpand2_dec_nand A B zb_int vdd gnd sky130_fd_bd_sram__openram_dp_nand2_dec
Xpand2_dec_inv zb_int Z vdd gnd pinv_dec
.ENDS and2_dec
* Copyright 2020 The SkyWater PDK Authors
*
* Licensed under the Apache License, Version 2.0 (the "License");
* you may not use this file except in compliance with the License.
* You may obtain a copy of the License at
*
*     https://www.apache.org/licenses/LICENSE-2.0
*
* Unless required by applicable law or agreed to in writing, software
* distributed under the License is distributed on an "AS IS" BASIS,
* WITHOUT WARRANTIES OR CONDITIONS OF ANY KIND, either express or implied.
* See the License for the specific language governing permissions and
* limitations under the License.
*
* SPDX-License-Identifier: Apache-2.0

* NGSPICE file created from sky130_fd_bd_sram__openram_dp_nand3_dec.ext - technology: EFS8A


* Top level circuit sky130_fd_bd_sram__openram_dp_nand3_dec
.subckt sky130_fd_bd_sram__openram_dp_nand3_dec A B C Z VDD GND

M1001 Z A a_n346_328# GND sky130_fd_pr__nfet_01v8 W=0.74u L=0.15u m=1
M1002 a_n346_256# C GND GND sky130_fd_pr__nfet_01v8 W=0.74u L=0.15u m=1
M1003 a_n346_328# B a_n346_256# GND sky130_fd_pr__nfet_01v8 W=0.74u L=0.15u m=1
M1000 Z B VDD VDD sky130_fd_pr__pfet_01v8 W=1.12u L=0.15u m=1
M1004 Z A VDD VDD sky130_fd_pr__pfet_01v8 W=1.12u L=0.15u m=1
M1005 Z C VDD VDD sky130_fd_pr__pfet_01v8 W=1.12u L=0.15u m=1
.ends


.SUBCKT and3_dec A B C Z vdd gnd
*.PININFO A:I B:I C:I Z:O vdd:B gnd:B
* INPUT : A 
* INPUT : B 
* INPUT : C 
* OUTPUT: Z 
* POWER : vdd 
* GROUND: gnd 
* size: 1
Xpand3_dec_nand A B C zb_int vdd gnd sky130_fd_bd_sram__openram_dp_nand3_dec
Xpand3_dec_inv zb_int Z vdd gnd pinv_dec
.ENDS and3_dec

.SUBCKT hierarchical_predecode2x4 in_0 in_1 out_0 out_1 out_2 out_3 vdd gnd
*.PININFO in_0:I in_1:I out_0:O out_1:O out_2:O out_3:O vdd:B gnd:B
* INPUT : in_0 
* INPUT : in_1 
* OUTPUT: out_0 
* OUTPUT: out_1 
* OUTPUT: out_2 
* OUTPUT: out_3 
* POWER : vdd 
* GROUND: gnd 
Xpre_inv_0 in_0 inbar_0 vdd gnd pinv_dec
Xpre_inv_1 in_1 inbar_1 vdd gnd pinv_dec
XXpre2x4_and_0 inbar_0 inbar_1 out_0 vdd gnd and2_dec
XXpre2x4_and_1 in_0 inbar_1 out_1 vdd gnd and2_dec
XXpre2x4_and_2 inbar_0 in_1 out_2 vdd gnd and2_dec
XXpre2x4_and_3 in_0 in_1 out_3 vdd gnd and2_dec
.ENDS hierarchical_predecode2x4

.SUBCKT hierarchical_predecode3x8 in_0 in_1 in_2 out_0 out_1 out_2 out_3 out_4 out_5 out_6 out_7 vdd gnd
*.PININFO in_0:I in_1:I in_2:I out_0:O out_1:O out_2:O out_3:O out_4:O out_5:O out_6:O out_7:O vdd:B gnd:B
* INPUT : in_0 
* INPUT : in_1 
* INPUT : in_2 
* OUTPUT: out_0 
* OUTPUT: out_1 
* OUTPUT: out_2 
* OUTPUT: out_3 
* OUTPUT: out_4 
* OUTPUT: out_5 
* OUTPUT: out_6 
* OUTPUT: out_7 
* POWER : vdd 
* GROUND: gnd 
Xpre_inv_0 in_0 inbar_0 vdd gnd pinv_dec
Xpre_inv_1 in_1 inbar_1 vdd gnd pinv_dec
Xpre_inv_2 in_2 inbar_2 vdd gnd pinv_dec
XXpre3x8_and_0 inbar_0 inbar_1 inbar_2 out_0 vdd gnd and3_dec
XXpre3x8_and_1 in_0 inbar_1 inbar_2 out_1 vdd gnd and3_dec
XXpre3x8_and_2 inbar_0 in_1 inbar_2 out_2 vdd gnd and3_dec
XXpre3x8_and_3 in_0 in_1 inbar_2 out_3 vdd gnd and3_dec
XXpre3x8_and_4 inbar_0 inbar_1 in_2 out_4 vdd gnd and3_dec
XXpre3x8_and_5 in_0 inbar_1 in_2 out_5 vdd gnd and3_dec
XXpre3x8_and_6 inbar_0 in_1 in_2 out_6 vdd gnd and3_dec
XXpre3x8_and_7 in_0 in_1 in_2 out_7 vdd gnd and3_dec
.ENDS hierarchical_predecode3x8
* Copyright 2020 The SkyWater PDK Authors
*
* Licensed under the Apache License, Version 2.0 (the "License");
* you may not use this file except in compliance with the License.
* You may obtain a copy of the License at
*
*     https://www.apache.org/licenses/LICENSE-2.0
*
* Unless required by applicable law or agreed to in writing, software
* distributed under the License is distributed on an "AS IS" BASIS,
* WITHOUT WARRANTIES OR CONDITIONS OF ANY KIND, either express or implied.
* See the License for the specific language governing permissions and
* limitations under the License.
*
* SPDX-License-Identifier: Apache-2.0

* NGSPICE file created from sky130_fd_bd_sram__openram_dp_nand4_dec.ext - technology: EFS8A

.subckt sky130_fd_bd_sram__openram_dp_nand4_dec A B C D Z VDD GND
M1000 Z A a_406_334# GND sky130_fd_pr__nfet_01v8 W=0.74u L=0.15u m=1
M1004 a_406_190# D GND GND sky130_fd_pr__nfet_01v8 W=0.74u L=0.15u m=1
M1005 a_406_262# C a_406_190# GND sky130_fd_pr__nfet_01v8 W=0.74u L=0.15u m=1
M1007 a_406_334# B a_406_262# GND sky130_fd_pr__nfet_01v8 W=0.74u L=0.15u m=1
M1001 Z A VDD VDD sky130_fd_pr__pfet_01v8 W=1.12u L=0.15u m=1
M1002 VDD C Z VDD sky130_fd_pr__pfet_01v8 W=1.12u L=0.15u m=1
M1003 VDD D Z VDD sky130_fd_pr__pfet_01v8 W=1.12u L=0.15u m=1
M1006 Z B VDD VDD sky130_fd_pr__pfet_01v8 W=1.12u L=0.15u m=1
.ends


.SUBCKT and4_dec A B C D Z vdd gnd
*.PININFO A:I B:I C:I D:I Z:O vdd:B gnd:B
* INPUT : A 
* INPUT : B 
* INPUT : C 
* INPUT : D 
* OUTPUT: Z 
* POWER : vdd 
* GROUND: gnd 
* size: 1
Xpand4_dec_nand A B C D zb_int vdd gnd sky130_fd_bd_sram__openram_dp_nand4_dec
Xpand4_dec_inv zb_int Z vdd gnd pinv_dec
.ENDS and4_dec

.SUBCKT hierarchical_predecode4x16 in_0 in_1 in_2 in_3 out_0 out_1 out_2 out_3 out_4 out_5 out_6 out_7 out_8 out_9 out_10 out_11 out_12 out_13 out_14 out_15 vdd gnd
*.PININFO in_0:I in_1:I in_2:I in_3:I out_0:O out_1:O out_2:O out_3:O out_4:O out_5:O out_6:O out_7:O out_8:O out_9:O out_10:O out_11:O out_12:O out_13:O out_14:O out_15:O vdd:B gnd:B
* INPUT : in_0 
* INPUT : in_1 
* INPUT : in_2 
* INPUT : in_3 
* OUTPUT: out_0 
* OUTPUT: out_1 
* OUTPUT: out_2 
* OUTPUT: out_3 
* OUTPUT: out_4 
* OUTPUT: out_5 
* OUTPUT: out_6 
* OUTPUT: out_7 
* OUTPUT: out_8 
* OUTPUT: out_9 
* OUTPUT: out_10 
* OUTPUT: out_11 
* OUTPUT: out_12 
* OUTPUT: out_13 
* OUTPUT: out_14 
* OUTPUT: out_15 
* POWER : vdd 
* GROUND: gnd 
Xpre_inv_0 in_0 inbar_0 vdd gnd pinv_dec
Xpre_inv_1 in_1 inbar_1 vdd gnd pinv_dec
Xpre_inv_2 in_2 inbar_2 vdd gnd pinv_dec
Xpre_inv_3 in_3 inbar_3 vdd gnd pinv_dec
XXpre4x16_and_0 inbar_0 inbar_1 inbar_2 inbar_3 out_0 vdd gnd and4_dec
XXpre4x16_and_1 in_0 inbar_1 inbar_2 inbar_3 out_1 vdd gnd and4_dec
XXpre4x16_and_2 inbar_0 in_1 inbar_2 inbar_3 out_2 vdd gnd and4_dec
XXpre4x16_and_3 in_0 in_1 inbar_2 inbar_3 out_3 vdd gnd and4_dec
XXpre4x16_and_4 inbar_0 inbar_1 in_2 inbar_3 out_4 vdd gnd and4_dec
XXpre4x16_and_5 in_0 inbar_1 in_2 inbar_3 out_5 vdd gnd and4_dec
XXpre4x16_and_6 inbar_0 in_1 in_2 inbar_3 out_6 vdd gnd and4_dec
XXpre4x16_and_7 in_0 in_1 in_2 inbar_3 out_7 vdd gnd and4_dec
XXpre4x16_and_8 inbar_0 inbar_1 inbar_2 in_3 out_8 vdd gnd and4_dec
XXpre4x16_and_9 in_0 inbar_1 inbar_2 in_3 out_9 vdd gnd and4_dec
XXpre4x16_and_10 inbar_0 in_1 inbar_2 in_3 out_10 vdd gnd and4_dec
XXpre4x16_and_11 in_0 in_1 inbar_2 in_3 out_11 vdd gnd and4_dec
XXpre4x16_and_12 inbar_0 inbar_1 in_2 in_3 out_12 vdd gnd and4_dec
XXpre4x16_and_13 in_0 inbar_1 in_2 in_3 out_13 vdd gnd and4_dec
XXpre4x16_and_14 inbar_0 in_1 in_2 in_3 out_14 vdd gnd and4_dec
XXpre4x16_and_15 in_0 in_1 in_2 in_3 out_15 vdd gnd and4_dec
.ENDS hierarchical_predecode4x16

.SUBCKT hierarchical_decoder addr_0 addr_1 addr_2 addr_3 addr_4 addr_5 decode_0 decode_1 decode_2 decode_3 decode_4 decode_5 decode_6 decode_7 decode_8 decode_9 decode_10 decode_11 decode_12 decode_13 decode_14 decode_15 decode_16 decode_17 decode_18 decode_19 decode_20 decode_21 decode_22 decode_23 decode_24 decode_25 decode_26 decode_27 decode_28 decode_29 decode_30 decode_31 decode_32 decode_33 decode_34 decode_35 decode_36 decode_37 decode_38 decode_39 decode_40 decode_41 decode_42 decode_43 decode_44 decode_45 decode_46 decode_47 decode_48 decode_49 decode_50 decode_51 decode_52 decode_53 decode_54 decode_55 decode_56 decode_57 decode_58 decode_59 decode_60 decode_61 decode_62 decode_63 vdd gnd
*.PININFO addr_0:I addr_1:I addr_2:I addr_3:I addr_4:I addr_5:I decode_0:O decode_1:O decode_2:O decode_3:O decode_4:O decode_5:O decode_6:O decode_7:O decode_8:O decode_9:O decode_10:O decode_11:O decode_12:O decode_13:O decode_14:O decode_15:O decode_16:O decode_17:O decode_18:O decode_19:O decode_20:O decode_21:O decode_22:O decode_23:O decode_24:O decode_25:O decode_26:O decode_27:O decode_28:O decode_29:O decode_30:O decode_31:O decode_32:O decode_33:O decode_34:O decode_35:O decode_36:O decode_37:O decode_38:O decode_39:O decode_40:O decode_41:O decode_42:O decode_43:O decode_44:O decode_45:O decode_46:O decode_47:O decode_48:O decode_49:O decode_50:O decode_51:O decode_52:O decode_53:O decode_54:O decode_55:O decode_56:O decode_57:O decode_58:O decode_59:O decode_60:O decode_61:O decode_62:O decode_63:O vdd:B gnd:B
* INPUT : addr_0 
* INPUT : addr_1 
* INPUT : addr_2 
* INPUT : addr_3 
* INPUT : addr_4 
* INPUT : addr_5 
* OUTPUT: decode_0 
* OUTPUT: decode_1 
* OUTPUT: decode_2 
* OUTPUT: decode_3 
* OUTPUT: decode_4 
* OUTPUT: decode_5 
* OUTPUT: decode_6 
* OUTPUT: decode_7 
* OUTPUT: decode_8 
* OUTPUT: decode_9 
* OUTPUT: decode_10 
* OUTPUT: decode_11 
* OUTPUT: decode_12 
* OUTPUT: decode_13 
* OUTPUT: decode_14 
* OUTPUT: decode_15 
* OUTPUT: decode_16 
* OUTPUT: decode_17 
* OUTPUT: decode_18 
* OUTPUT: decode_19 
* OUTPUT: decode_20 
* OUTPUT: decode_21 
* OUTPUT: decode_22 
* OUTPUT: decode_23 
* OUTPUT: decode_24 
* OUTPUT: decode_25 
* OUTPUT: decode_26 
* OUTPUT: decode_27 
* OUTPUT: decode_28 
* OUTPUT: decode_29 
* OUTPUT: decode_30 
* OUTPUT: decode_31 
* OUTPUT: decode_32 
* OUTPUT: decode_33 
* OUTPUT: decode_34 
* OUTPUT: decode_35 
* OUTPUT: decode_36 
* OUTPUT: decode_37 
* OUTPUT: decode_38 
* OUTPUT: decode_39 
* OUTPUT: decode_40 
* OUTPUT: decode_41 
* OUTPUT: decode_42 
* OUTPUT: decode_43 
* OUTPUT: decode_44 
* OUTPUT: decode_45 
* OUTPUT: decode_46 
* OUTPUT: decode_47 
* OUTPUT: decode_48 
* OUTPUT: decode_49 
* OUTPUT: decode_50 
* OUTPUT: decode_51 
* OUTPUT: decode_52 
* OUTPUT: decode_53 
* OUTPUT: decode_54 
* OUTPUT: decode_55 
* OUTPUT: decode_56 
* OUTPUT: decode_57 
* OUTPUT: decode_58 
* OUTPUT: decode_59 
* OUTPUT: decode_60 
* OUTPUT: decode_61 
* OUTPUT: decode_62 
* OUTPUT: decode_63 
* POWER : vdd 
* GROUND: gnd 
Xpre_0 addr_0 addr_1 out_0 out_1 out_2 out_3 vdd gnd hierarchical_predecode2x4
Xpre_1 addr_2 addr_3 out_4 out_5 out_6 out_7 vdd gnd hierarchical_predecode2x4
Xpre_2 addr_4 addr_5 out_8 out_9 out_10 out_11 vdd gnd hierarchical_predecode2x4
XDEC_AND_0 out_0 out_4 out_8 decode_0 vdd gnd and3_dec
XDEC_AND_16 out_0 out_4 out_9 decode_16 vdd gnd and3_dec
XDEC_AND_32 out_0 out_4 out_10 decode_32 vdd gnd and3_dec
XDEC_AND_48 out_0 out_4 out_11 decode_48 vdd gnd and3_dec
XDEC_AND_4 out_0 out_5 out_8 decode_4 vdd gnd and3_dec
XDEC_AND_20 out_0 out_5 out_9 decode_20 vdd gnd and3_dec
XDEC_AND_36 out_0 out_5 out_10 decode_36 vdd gnd and3_dec
XDEC_AND_52 out_0 out_5 out_11 decode_52 vdd gnd and3_dec
XDEC_AND_8 out_0 out_6 out_8 decode_8 vdd gnd and3_dec
XDEC_AND_24 out_0 out_6 out_9 decode_24 vdd gnd and3_dec
XDEC_AND_40 out_0 out_6 out_10 decode_40 vdd gnd and3_dec
XDEC_AND_56 out_0 out_6 out_11 decode_56 vdd gnd and3_dec
XDEC_AND_12 out_0 out_7 out_8 decode_12 vdd gnd and3_dec
XDEC_AND_28 out_0 out_7 out_9 decode_28 vdd gnd and3_dec
XDEC_AND_44 out_0 out_7 out_10 decode_44 vdd gnd and3_dec
XDEC_AND_60 out_0 out_7 out_11 decode_60 vdd gnd and3_dec
XDEC_AND_1 out_1 out_4 out_8 decode_1 vdd gnd and3_dec
XDEC_AND_17 out_1 out_4 out_9 decode_17 vdd gnd and3_dec
XDEC_AND_33 out_1 out_4 out_10 decode_33 vdd gnd and3_dec
XDEC_AND_49 out_1 out_4 out_11 decode_49 vdd gnd and3_dec
XDEC_AND_5 out_1 out_5 out_8 decode_5 vdd gnd and3_dec
XDEC_AND_21 out_1 out_5 out_9 decode_21 vdd gnd and3_dec
XDEC_AND_37 out_1 out_5 out_10 decode_37 vdd gnd and3_dec
XDEC_AND_53 out_1 out_5 out_11 decode_53 vdd gnd and3_dec
XDEC_AND_9 out_1 out_6 out_8 decode_9 vdd gnd and3_dec
XDEC_AND_25 out_1 out_6 out_9 decode_25 vdd gnd and3_dec
XDEC_AND_41 out_1 out_6 out_10 decode_41 vdd gnd and3_dec
XDEC_AND_57 out_1 out_6 out_11 decode_57 vdd gnd and3_dec
XDEC_AND_13 out_1 out_7 out_8 decode_13 vdd gnd and3_dec
XDEC_AND_29 out_1 out_7 out_9 decode_29 vdd gnd and3_dec
XDEC_AND_45 out_1 out_7 out_10 decode_45 vdd gnd and3_dec
XDEC_AND_61 out_1 out_7 out_11 decode_61 vdd gnd and3_dec
XDEC_AND_2 out_2 out_4 out_8 decode_2 vdd gnd and3_dec
XDEC_AND_18 out_2 out_4 out_9 decode_18 vdd gnd and3_dec
XDEC_AND_34 out_2 out_4 out_10 decode_34 vdd gnd and3_dec
XDEC_AND_50 out_2 out_4 out_11 decode_50 vdd gnd and3_dec
XDEC_AND_6 out_2 out_5 out_8 decode_6 vdd gnd and3_dec
XDEC_AND_22 out_2 out_5 out_9 decode_22 vdd gnd and3_dec
XDEC_AND_38 out_2 out_5 out_10 decode_38 vdd gnd and3_dec
XDEC_AND_54 out_2 out_5 out_11 decode_54 vdd gnd and3_dec
XDEC_AND_10 out_2 out_6 out_8 decode_10 vdd gnd and3_dec
XDEC_AND_26 out_2 out_6 out_9 decode_26 vdd gnd and3_dec
XDEC_AND_42 out_2 out_6 out_10 decode_42 vdd gnd and3_dec
XDEC_AND_58 out_2 out_6 out_11 decode_58 vdd gnd and3_dec
XDEC_AND_14 out_2 out_7 out_8 decode_14 vdd gnd and3_dec
XDEC_AND_30 out_2 out_7 out_9 decode_30 vdd gnd and3_dec
XDEC_AND_46 out_2 out_7 out_10 decode_46 vdd gnd and3_dec
XDEC_AND_62 out_2 out_7 out_11 decode_62 vdd gnd and3_dec
XDEC_AND_3 out_3 out_4 out_8 decode_3 vdd gnd and3_dec
XDEC_AND_19 out_3 out_4 out_9 decode_19 vdd gnd and3_dec
XDEC_AND_35 out_3 out_4 out_10 decode_35 vdd gnd and3_dec
XDEC_AND_51 out_3 out_4 out_11 decode_51 vdd gnd and3_dec
XDEC_AND_7 out_3 out_5 out_8 decode_7 vdd gnd and3_dec
XDEC_AND_23 out_3 out_5 out_9 decode_23 vdd gnd and3_dec
XDEC_AND_39 out_3 out_5 out_10 decode_39 vdd gnd and3_dec
XDEC_AND_55 out_3 out_5 out_11 decode_55 vdd gnd and3_dec
XDEC_AND_11 out_3 out_6 out_8 decode_11 vdd gnd and3_dec
XDEC_AND_27 out_3 out_6 out_9 decode_27 vdd gnd and3_dec
XDEC_AND_43 out_3 out_6 out_10 decode_43 vdd gnd and3_dec
XDEC_AND_59 out_3 out_6 out_11 decode_59 vdd gnd and3_dec
XDEC_AND_15 out_3 out_7 out_8 decode_15 vdd gnd and3_dec
XDEC_AND_31 out_3 out_7 out_9 decode_31 vdd gnd and3_dec
XDEC_AND_47 out_3 out_7 out_10 decode_47 vdd gnd and3_dec
XDEC_AND_63 out_3 out_7 out_11 decode_63 vdd gnd and3_dec
.ENDS hierarchical_decoder

* spice ptx X{0} {1} sky130_fd_pr__nfet_01v8 m=1 w=0.74 l=0.15 pd=1.78 ps=1.78 as=0.28u ad=0.28u

* spice ptx X{0} {1} sky130_fd_pr__pfet_01v8 m=1 w=3.0 l=0.15 pd=6.30 ps=6.30 as=1.12u ad=1.12u

.SUBCKT pinv_dec_0 A Z vdd gnd
*.PININFO A:I Z:O vdd:B gnd:B
* INPUT : A 
* OUTPUT: Z 
* POWER : vdd 
* GROUND: gnd 
Xpinv_pmos Z A vdd vdd sky130_fd_pr__pfet_01v8 m=1 w=3.0u l=0.15u
Xpinv_nmos Z A gnd gnd sky130_fd_pr__nfet_01v8 m=1 w=0.74u l=0.15u
.ENDS pinv_dec_0

.SUBCKT pbuf_dec A Z vdd gnd
*.PININFO A:I Z:O vdd:B gnd:B
* INPUT : A 
* OUTPUT: Z 
* POWER : vdd 
* GROUND: gnd 
Xbuf_inv1 A zb_int vdd gnd pinv_dec
Xbuf_inv2 zb_int Z vdd gnd pinv_dec_0
.ENDS pbuf_dec

.SUBCKT wordline_driver A B Z vdd gnd
*.PININFO A:I B:I Z:O vdd:B gnd:B
* INPUT : A 
* INPUT : B 
* OUTPUT: Z 
* POWER : vdd 
* GROUND: gnd 
Xwld_nand A B zb_int vdd gnd sky130_fd_bd_sram__openram_dp_nand2_dec
Xwl_driver zb_int Z vdd gnd pbuf_dec
.ENDS wordline_driver

.SUBCKT wordline_driver_array in_0 in_1 in_2 in_3 in_4 in_5 in_6 in_7 in_8 in_9 in_10 in_11 in_12 in_13 in_14 in_15 in_16 in_17 in_18 in_19 in_20 in_21 in_22 in_23 in_24 in_25 in_26 in_27 in_28 in_29 in_30 in_31 in_32 in_33 in_34 in_35 in_36 in_37 in_38 in_39 in_40 in_41 in_42 in_43 in_44 in_45 in_46 in_47 in_48 in_49 in_50 in_51 in_52 in_53 in_54 in_55 in_56 in_57 in_58 in_59 in_60 in_61 in_62 in_63 wl_0 wl_1 wl_2 wl_3 wl_4 wl_5 wl_6 wl_7 wl_8 wl_9 wl_10 wl_11 wl_12 wl_13 wl_14 wl_15 wl_16 wl_17 wl_18 wl_19 wl_20 wl_21 wl_22 wl_23 wl_24 wl_25 wl_26 wl_27 wl_28 wl_29 wl_30 wl_31 wl_32 wl_33 wl_34 wl_35 wl_36 wl_37 wl_38 wl_39 wl_40 wl_41 wl_42 wl_43 wl_44 wl_45 wl_46 wl_47 wl_48 wl_49 wl_50 wl_51 wl_52 wl_53 wl_54 wl_55 wl_56 wl_57 wl_58 wl_59 wl_60 wl_61 wl_62 wl_63 en vdd gnd
*.PININFO in_0:I in_1:I in_2:I in_3:I in_4:I in_5:I in_6:I in_7:I in_8:I in_9:I in_10:I in_11:I in_12:I in_13:I in_14:I in_15:I in_16:I in_17:I in_18:I in_19:I in_20:I in_21:I in_22:I in_23:I in_24:I in_25:I in_26:I in_27:I in_28:I in_29:I in_30:I in_31:I in_32:I in_33:I in_34:I in_35:I in_36:I in_37:I in_38:I in_39:I in_40:I in_41:I in_42:I in_43:I in_44:I in_45:I in_46:I in_47:I in_48:I in_49:I in_50:I in_51:I in_52:I in_53:I in_54:I in_55:I in_56:I in_57:I in_58:I in_59:I in_60:I in_61:I in_62:I in_63:I wl_0:O wl_1:O wl_2:O wl_3:O wl_4:O wl_5:O wl_6:O wl_7:O wl_8:O wl_9:O wl_10:O wl_11:O wl_12:O wl_13:O wl_14:O wl_15:O wl_16:O wl_17:O wl_18:O wl_19:O wl_20:O wl_21:O wl_22:O wl_23:O wl_24:O wl_25:O wl_26:O wl_27:O wl_28:O wl_29:O wl_30:O wl_31:O wl_32:O wl_33:O wl_34:O wl_35:O wl_36:O wl_37:O wl_38:O wl_39:O wl_40:O wl_41:O wl_42:O wl_43:O wl_44:O wl_45:O wl_46:O wl_47:O wl_48:O wl_49:O wl_50:O wl_51:O wl_52:O wl_53:O wl_54:O wl_55:O wl_56:O wl_57:O wl_58:O wl_59:O wl_60:O wl_61:O wl_62:O wl_63:O en:I vdd:B gnd:B
* INPUT : in_0 
* INPUT : in_1 
* INPUT : in_2 
* INPUT : in_3 
* INPUT : in_4 
* INPUT : in_5 
* INPUT : in_6 
* INPUT : in_7 
* INPUT : in_8 
* INPUT : in_9 
* INPUT : in_10 
* INPUT : in_11 
* INPUT : in_12 
* INPUT : in_13 
* INPUT : in_14 
* INPUT : in_15 
* INPUT : in_16 
* INPUT : in_17 
* INPUT : in_18 
* INPUT : in_19 
* INPUT : in_20 
* INPUT : in_21 
* INPUT : in_22 
* INPUT : in_23 
* INPUT : in_24 
* INPUT : in_25 
* INPUT : in_26 
* INPUT : in_27 
* INPUT : in_28 
* INPUT : in_29 
* INPUT : in_30 
* INPUT : in_31 
* INPUT : in_32 
* INPUT : in_33 
* INPUT : in_34 
* INPUT : in_35 
* INPUT : in_36 
* INPUT : in_37 
* INPUT : in_38 